<?xml version="1.0" encoding="UTF-8"?>
<additional xmlns:xsi="http://www.w3.org/2001/XMLSchema-instance" xsi:noNamespaceSchemaLocation="http://sumo.dlr.de/xsd/additional_file.xsd">
    <edgeData id="emissions" type="emissions" freq="300" file="{emissionOutfile}" excludeEmpty="true" />
    <edgeData id="meandata" freq="300" file="{meandataOutfile}" excludeEmpty="true" />
</additional>
