<additional xmlns:xsi="http://www.w3.org/2001/XMLSchema-instance" xsi:noNamespaceSchemaLocation="http://sumo.dlr.de/xsd/additional_file.xsd">
    <vTypeDistribution id="vehCVToCPE">
        <vType accel="1.362" actionStepLength="0.100" carFollowModel="ACC" color="blue" decel="2.024" emergencyDecel="9.000" id="vehCVToCPE0" lcAssertive="0.468" tau="1.901">
            <param key="device.toc.automatedType" value="vehCVToCPE"/>
            <param key="device.toc.manualType" value="vehLVPE"/>
            <param key="has.toc.device" value="true"/>
            <param key="device.toc.mrmDecel" value="3.000"/>
            <param key="device.toc.recoveryRate" value="0.325"/>
            <param key="device.toc.initialAwareness" value="0.470"/>
            <param key="device.toc.useColorScheme" value="true"/>
            <param key="device.toc.responseTime" value="0.000"/>
        </vType>
        <vType accel="1.868" actionStepLength="0.100" carFollowModel="ACC" color="blue" decel="2.343" emergencyDecel="9.000" id="vehCVToCPE1" lcAssertive="0.472" tau="1.907">
            <param key="device.toc.automatedType" value="vehCVToCPE"/>
            <param key="device.toc.manualType" value="vehLVPE"/>
            <param key="has.toc.device" value="true"/>
            <param key="device.toc.mrmDecel" value="3.000"/>
            <param key="device.toc.recoveryRate" value="0.348"/>
            <param key="device.toc.initialAwareness" value="0.410"/>
            <param key="device.toc.useColorScheme" value="true"/>
            <param key="device.toc.responseTime" value="0.000"/>
        </vType>
        <vType accel="1.068" actionStepLength="0.100" carFollowModel="ACC" color="blue" decel="3.942" emergencyDecel="9.000" id="vehCVToCPE2" lcAssertive="0.446" tau="1.814">
            <param key="device.toc.automatedType" value="vehCVToCPE"/>
            <param key="device.toc.manualType" value="vehLVPE"/>
            <param key="has.toc.device" value="true"/>
            <param key="device.toc.mrmDecel" value="3.000"/>
            <param key="device.toc.recoveryRate" value="0.231"/>
            <param key="device.toc.initialAwareness" value="0.432"/>
            <param key="device.toc.useColorScheme" value="true"/>
            <param key="device.toc.responseTime" value="0.000"/>
        </vType>
        <vType accel="1.501" actionStepLength="0.100" carFollowModel="ACC" color="blue" decel="2.042" emergencyDecel="9.000" id="vehCVToCPE3" lcAssertive="0.598" tau="1.956">
            <param key="device.toc.automatedType" value="vehCVToCPE"/>
            <param key="device.toc.manualType" value="vehLVPE"/>
            <param key="has.toc.device" value="true"/>
            <param key="device.toc.mrmDecel" value="3.000"/>
            <param key="device.toc.recoveryRate" value="0.020"/>
            <param key="device.toc.initialAwareness" value="0.366"/>
            <param key="device.toc.useColorScheme" value="true"/>
            <param key="device.toc.responseTime" value="0.000"/>
        </vType>
        <vType accel="1.406" actionStepLength="0.100" carFollowModel="ACC" color="blue" decel="2.833" emergencyDecel="9.000" id="vehCVToCPE4" lcAssertive="0.426" tau="1.930">
            <param key="device.toc.automatedType" value="vehCVToCPE"/>
            <param key="device.toc.manualType" value="vehLVPE"/>
            <param key="has.toc.device" value="true"/>
            <param key="device.toc.mrmDecel" value="3.000"/>
            <param key="device.toc.recoveryRate" value="0.062"/>
            <param key="device.toc.initialAwareness" value="0.375"/>
            <param key="device.toc.useColorScheme" value="true"/>
            <param key="device.toc.responseTime" value="0.000"/>
        </vType>
        <vType accel="0.825" actionStepLength="0.100" carFollowModel="ACC" color="blue" decel="2.406" emergencyDecel="9.000" id="vehCVToCPE5" lcAssertive="0.478" tau="1.956">
            <param key="device.toc.automatedType" value="vehCVToCPE"/>
            <param key="device.toc.manualType" value="vehLVPE"/>
            <param key="has.toc.device" value="true"/>
            <param key="device.toc.mrmDecel" value="3.000"/>
            <param key="device.toc.recoveryRate" value="0.116"/>
            <param key="device.toc.initialAwareness" value="0.131"/>
            <param key="device.toc.useColorScheme" value="true"/>
            <param key="device.toc.responseTime" value="0.000"/>
        </vType>
        <vType accel="1.247" actionStepLength="0.100" carFollowModel="ACC" color="blue" decel="3.826" emergencyDecel="9.000" id="vehCVToCPE6" lcAssertive="0.430" tau="1.951">
            <param key="device.toc.automatedType" value="vehCVToCPE"/>
            <param key="device.toc.manualType" value="vehLVPE"/>
            <param key="has.toc.device" value="true"/>
            <param key="device.toc.mrmDecel" value="3.000"/>
            <param key="device.toc.recoveryRate" value="0.320"/>
            <param key="device.toc.initialAwareness" value="0.244"/>
            <param key="device.toc.useColorScheme" value="true"/>
            <param key="device.toc.responseTime" value="0.000"/>
        </vType>
        <vType accel="1.366" actionStepLength="0.100" carFollowModel="ACC" color="blue" decel="3.340" emergencyDecel="9.000" id="vehCVToCPE7" lcAssertive="0.503" tau="1.994">
            <param key="device.toc.automatedType" value="vehCVToCPE"/>
            <param key="device.toc.manualType" value="vehLVPE"/>
            <param key="has.toc.device" value="true"/>
            <param key="device.toc.mrmDecel" value="3.000"/>
            <param key="device.toc.recoveryRate" value="0.182"/>
            <param key="device.toc.initialAwareness" value="0.386"/>
            <param key="device.toc.useColorScheme" value="true"/>
            <param key="device.toc.responseTime" value="0.000"/>
        </vType>
        <vType accel="0.984" actionStepLength="0.100" carFollowModel="ACC" color="blue" decel="3.888" emergencyDecel="9.000" id="vehCVToCPE8" lcAssertive="0.467" tau="1.823">
            <param key="device.toc.automatedType" value="vehCVToCPE"/>
            <param key="device.toc.manualType" value="vehLVPE"/>
            <param key="has.toc.device" value="true"/>
            <param key="device.toc.mrmDecel" value="3.000"/>
            <param key="device.toc.recoveryRate" value="0.250"/>
            <param key="device.toc.initialAwareness" value="0.428"/>
            <param key="device.toc.useColorScheme" value="true"/>
            <param key="device.toc.responseTime" value="0.000"/>
        </vType>
        <vType accel="1.234" actionStepLength="0.100" carFollowModel="ACC" color="blue" decel="3.776" emergencyDecel="9.000" id="vehCVToCPE9" lcAssertive="0.531" tau="1.852">
            <param key="device.toc.automatedType" value="vehCVToCPE"/>
            <param key="device.toc.manualType" value="vehLVPE"/>
            <param key="has.toc.device" value="true"/>
            <param key="device.toc.mrmDecel" value="3.000"/>
            <param key="device.toc.recoveryRate" value="0.242"/>
            <param key="device.toc.initialAwareness" value="0.441"/>
            <param key="device.toc.useColorScheme" value="true"/>
            <param key="device.toc.responseTime" value="0.000"/>
        </vType>
        <vType accel="1.819" actionStepLength="0.100" carFollowModel="ACC" color="blue" decel="3.923" emergencyDecel="9.000" id="vehCVToCPE10" lcAssertive="0.431" tau="1.958">
            <param key="device.toc.automatedType" value="vehCVToCPE"/>
            <param key="device.toc.manualType" value="vehLVPE"/>
            <param key="has.toc.device" value="true"/>
            <param key="device.toc.mrmDecel" value="3.000"/>
            <param key="device.toc.recoveryRate" value="0.182"/>
            <param key="device.toc.initialAwareness" value="0.262"/>
            <param key="device.toc.useColorScheme" value="true"/>
            <param key="device.toc.responseTime" value="0.000"/>
        </vType>
        <vType accel="1.402" actionStepLength="0.100" carFollowModel="ACC" color="blue" decel="3.656" emergencyDecel="9.000" id="vehCVToCPE11" lcAssertive="0.540" tau="1.904">
            <param key="device.toc.automatedType" value="vehCVToCPE"/>
            <param key="device.toc.manualType" value="vehLVPE"/>
            <param key="has.toc.device" value="true"/>
            <param key="device.toc.mrmDecel" value="3.000"/>
            <param key="device.toc.recoveryRate" value="0.158"/>
            <param key="device.toc.initialAwareness" value="0.633"/>
            <param key="device.toc.useColorScheme" value="true"/>
            <param key="device.toc.responseTime" value="0.000"/>
        </vType>
        <vType accel="1.735" actionStepLength="0.100" carFollowModel="ACC" color="blue" decel="2.750" emergencyDecel="9.000" id="vehCVToCPE12" lcAssertive="0.554" tau="1.907">
            <param key="device.toc.automatedType" value="vehCVToCPE"/>
            <param key="device.toc.manualType" value="vehLVPE"/>
            <param key="has.toc.device" value="true"/>
            <param key="device.toc.mrmDecel" value="3.000"/>
            <param key="device.toc.recoveryRate" value="0.056"/>
            <param key="device.toc.initialAwareness" value="0.426"/>
            <param key="device.toc.useColorScheme" value="true"/>
            <param key="device.toc.responseTime" value="0.000"/>
        </vType>
        <vType accel="1.214" actionStepLength="0.100" carFollowModel="ACC" color="blue" decel="3.496" emergencyDecel="9.000" id="vehCVToCPE13" lcAssertive="0.453" tau="1.889">
            <param key="device.toc.automatedType" value="vehCVToCPE"/>
            <param key="device.toc.manualType" value="vehLVPE"/>
            <param key="has.toc.device" value="true"/>
            <param key="device.toc.mrmDecel" value="3.000"/>
            <param key="device.toc.recoveryRate" value="0.176"/>
            <param key="device.toc.initialAwareness" value="0.262"/>
            <param key="device.toc.useColorScheme" value="true"/>
            <param key="device.toc.responseTime" value="0.000"/>
        </vType>
        <vType accel="1.487" actionStepLength="0.100" carFollowModel="ACC" color="blue" decel="3.032" emergencyDecel="9.000" id="vehCVToCPE14" lcAssertive="0.576" tau="1.833">
            <param key="device.toc.automatedType" value="vehCVToCPE"/>
            <param key="device.toc.manualType" value="vehLVPE"/>
            <param key="has.toc.device" value="true"/>
            <param key="device.toc.mrmDecel" value="3.000"/>
            <param key="device.toc.recoveryRate" value="0.160"/>
            <param key="device.toc.initialAwareness" value="0.187"/>
            <param key="device.toc.useColorScheme" value="true"/>
            <param key="device.toc.responseTime" value="0.000"/>
        </vType>
        <vType accel="1.800" actionStepLength="0.100" carFollowModel="ACC" color="blue" decel="2.424" emergencyDecel="9.000" id="vehCVToCPE15" lcAssertive="0.538" tau="1.988">
            <param key="device.toc.automatedType" value="vehCVToCPE"/>
            <param key="device.toc.manualType" value="vehLVPE"/>
            <param key="has.toc.device" value="true"/>
            <param key="device.toc.mrmDecel" value="3.000"/>
            <param key="device.toc.recoveryRate" value="0.080"/>
            <param key="device.toc.initialAwareness" value="0.324"/>
            <param key="device.toc.useColorScheme" value="true"/>
            <param key="device.toc.responseTime" value="0.000"/>
        </vType>
        <vType accel="1.974" actionStepLength="0.100" carFollowModel="ACC" color="blue" decel="2.450" emergencyDecel="9.000" id="vehCVToCPE16" lcAssertive="0.439" tau="1.931">
            <param key="device.toc.automatedType" value="vehCVToCPE"/>
            <param key="device.toc.manualType" value="vehLVPE"/>
            <param key="has.toc.device" value="true"/>
            <param key="device.toc.mrmDecel" value="3.000"/>
            <param key="device.toc.recoveryRate" value="0.182"/>
            <param key="device.toc.initialAwareness" value="0.360"/>
            <param key="device.toc.useColorScheme" value="true"/>
            <param key="device.toc.responseTime" value="0.000"/>
        </vType>
        <vType accel="1.303" actionStepLength="0.100" carFollowModel="ACC" color="blue" decel="2.936" emergencyDecel="9.000" id="vehCVToCPE17" lcAssertive="0.458" tau="1.977">
            <param key="device.toc.automatedType" value="vehCVToCPE"/>
            <param key="device.toc.manualType" value="vehLVPE"/>
            <param key="has.toc.device" value="true"/>
            <param key="device.toc.mrmDecel" value="3.000"/>
            <param key="device.toc.recoveryRate" value="0.112"/>
            <param key="device.toc.initialAwareness" value="0.365"/>
            <param key="device.toc.useColorScheme" value="true"/>
            <param key="device.toc.responseTime" value="0.000"/>
        </vType>
        <vType accel="1.037" actionStepLength="0.100" carFollowModel="ACC" color="blue" decel="3.140" emergencyDecel="9.000" id="vehCVToCPE18" lcAssertive="0.548" tau="1.853">
            <param key="device.toc.automatedType" value="vehCVToCPE"/>
            <param key="device.toc.manualType" value="vehLVPE"/>
            <param key="has.toc.device" value="true"/>
            <param key="device.toc.mrmDecel" value="3.000"/>
            <param key="device.toc.recoveryRate" value="0.272"/>
            <param key="device.toc.initialAwareness" value="0.740"/>
            <param key="device.toc.useColorScheme" value="true"/>
            <param key="device.toc.responseTime" value="0.000"/>
        </vType>
        <vType accel="1.899" actionStepLength="0.100" carFollowModel="ACC" color="blue" decel="3.877" emergencyDecel="9.000" id="vehCVToCPE19" lcAssertive="0.574" tau="1.800">
            <param key="device.toc.automatedType" value="vehCVToCPE"/>
            <param key="device.toc.manualType" value="vehLVPE"/>
            <param key="has.toc.device" value="true"/>
            <param key="device.toc.mrmDecel" value="3.000"/>
            <param key="device.toc.recoveryRate" value="0.330"/>
            <param key="device.toc.initialAwareness" value="0.751"/>
            <param key="device.toc.useColorScheme" value="true"/>
            <param key="device.toc.responseTime" value="0.000"/>
        </vType>
        <vType accel="1.627" actionStepLength="0.100" carFollowModel="ACC" color="blue" decel="2.589" emergencyDecel="9.000" id="vehCVToCPE20" lcAssertive="0.484" tau="1.961">
            <param key="device.toc.automatedType" value="vehCVToCPE"/>
            <param key="device.toc.manualType" value="vehLVPE"/>
            <param key="has.toc.device" value="true"/>
            <param key="device.toc.mrmDecel" value="3.000"/>
            <param key="device.toc.recoveryRate" value="0.202"/>
            <param key="device.toc.initialAwareness" value="0.560"/>
            <param key="device.toc.useColorScheme" value="true"/>
            <param key="device.toc.responseTime" value="0.000"/>
        </vType>
        <vType accel="1.977" actionStepLength="0.100" carFollowModel="ACC" color="blue" decel="2.919" emergencyDecel="9.000" id="vehCVToCPE21" lcAssertive="0.492" tau="1.957">
            <param key="device.toc.automatedType" value="vehCVToCPE"/>
            <param key="device.toc.manualType" value="vehLVPE"/>
            <param key="has.toc.device" value="true"/>
            <param key="device.toc.mrmDecel" value="3.000"/>
            <param key="device.toc.recoveryRate" value="0.274"/>
            <param key="device.toc.initialAwareness" value="0.577"/>
            <param key="device.toc.useColorScheme" value="true"/>
            <param key="device.toc.responseTime" value="0.000"/>
        </vType>
        <vType accel="1.766" actionStepLength="0.100" carFollowModel="ACC" color="blue" decel="3.092" emergencyDecel="9.000" id="vehCVToCPE22" lcAssertive="0.548" tau="1.821">
            <param key="device.toc.automatedType" value="vehCVToCPE"/>
            <param key="device.toc.manualType" value="vehLVPE"/>
            <param key="has.toc.device" value="true"/>
            <param key="device.toc.mrmDecel" value="3.000"/>
            <param key="device.toc.recoveryRate" value="0.247"/>
            <param key="device.toc.initialAwareness" value="0.489"/>
            <param key="device.toc.useColorScheme" value="true"/>
            <param key="device.toc.responseTime" value="0.000"/>
        </vType>
        <vType accel="1.759" actionStepLength="0.100" carFollowModel="ACC" color="blue" decel="2.311" emergencyDecel="9.000" id="vehCVToCPE23" lcAssertive="0.459" tau="1.903">
            <param key="device.toc.automatedType" value="vehCVToCPE"/>
            <param key="device.toc.manualType" value="vehLVPE"/>
            <param key="has.toc.device" value="true"/>
            <param key="device.toc.mrmDecel" value="3.000"/>
            <param key="device.toc.recoveryRate" value="0.140"/>
            <param key="device.toc.initialAwareness" value="0.270"/>
            <param key="device.toc.useColorScheme" value="true"/>
            <param key="device.toc.responseTime" value="0.000"/>
        </vType>
        <vType accel="1.888" actionStepLength="0.100" carFollowModel="ACC" color="blue" decel="2.906" emergencyDecel="9.000" id="vehCVToCPE24" lcAssertive="0.592" tau="1.864">
            <param key="device.toc.automatedType" value="vehCVToCPE"/>
            <param key="device.toc.manualType" value="vehLVPE"/>
            <param key="has.toc.device" value="true"/>
            <param key="device.toc.mrmDecel" value="3.000"/>
            <param key="device.toc.recoveryRate" value="0.208"/>
            <param key="device.toc.initialAwareness" value="0.735"/>
            <param key="device.toc.useColorScheme" value="true"/>
            <param key="device.toc.responseTime" value="0.000"/>
        </vType>
        <vType accel="0.865" actionStepLength="0.100" carFollowModel="ACC" color="blue" decel="3.326" emergencyDecel="9.000" id="vehCVToCPE25" lcAssertive="0.564" tau="1.859">
            <param key="device.toc.automatedType" value="vehCVToCPE"/>
            <param key="device.toc.manualType" value="vehLVPE"/>
            <param key="has.toc.device" value="true"/>
            <param key="device.toc.mrmDecel" value="3.000"/>
            <param key="device.toc.recoveryRate" value="0.253"/>
            <param key="device.toc.initialAwareness" value="0.368"/>
            <param key="device.toc.useColorScheme" value="true"/>
            <param key="device.toc.responseTime" value="0.000"/>
        </vType>
        <vType accel="1.086" actionStepLength="0.100" carFollowModel="ACC" color="blue" decel="2.988" emergencyDecel="9.000" id="vehCVToCPE26" lcAssertive="0.540" tau="1.944">
            <param key="device.toc.automatedType" value="vehCVToCPE"/>
            <param key="device.toc.manualType" value="vehLVPE"/>
            <param key="has.toc.device" value="true"/>
            <param key="device.toc.mrmDecel" value="3.000"/>
            <param key="device.toc.recoveryRate" value="0.477"/>
            <param key="device.toc.initialAwareness" value="0.178"/>
            <param key="device.toc.useColorScheme" value="true"/>
            <param key="device.toc.responseTime" value="0.000"/>
        </vType>
        <vType accel="1.901" actionStepLength="0.100" carFollowModel="ACC" color="blue" decel="2.984" emergencyDecel="9.000" id="vehCVToCPE27" lcAssertive="0.405" tau="1.971">
            <param key="device.toc.automatedType" value="vehCVToCPE"/>
            <param key="device.toc.manualType" value="vehLVPE"/>
            <param key="has.toc.device" value="true"/>
            <param key="device.toc.mrmDecel" value="3.000"/>
            <param key="device.toc.recoveryRate" value="0.287"/>
            <param key="device.toc.initialAwareness" value="0.183"/>
            <param key="device.toc.useColorScheme" value="true"/>
            <param key="device.toc.responseTime" value="0.000"/>
        </vType>
        <vType accel="1.625" actionStepLength="0.100" carFollowModel="ACC" color="blue" decel="2.160" emergencyDecel="9.000" id="vehCVToCPE28" lcAssertive="0.556" tau="1.977">
            <param key="device.toc.automatedType" value="vehCVToCPE"/>
            <param key="device.toc.manualType" value="vehLVPE"/>
            <param key="has.toc.device" value="true"/>
            <param key="device.toc.mrmDecel" value="3.000"/>
            <param key="device.toc.recoveryRate" value="0.166"/>
            <param key="device.toc.initialAwareness" value="0.652"/>
            <param key="device.toc.useColorScheme" value="true"/>
            <param key="device.toc.responseTime" value="0.000"/>
        </vType>
        <vType accel="1.599" actionStepLength="0.100" carFollowModel="ACC" color="blue" decel="2.925" emergencyDecel="9.000" id="vehCVToCPE29" lcAssertive="0.576" tau="1.930">
            <param key="device.toc.automatedType" value="vehCVToCPE"/>
            <param key="device.toc.manualType" value="vehLVPE"/>
            <param key="has.toc.device" value="true"/>
            <param key="device.toc.mrmDecel" value="3.000"/>
            <param key="device.toc.recoveryRate" value="0.225"/>
            <param key="device.toc.initialAwareness" value="0.641"/>
            <param key="device.toc.useColorScheme" value="true"/>
            <param key="device.toc.responseTime" value="0.000"/>
        </vType>
        <vType accel="1.601" actionStepLength="0.100" carFollowModel="ACC" color="blue" decel="3.195" emergencyDecel="9.000" id="vehCVToCPE30" lcAssertive="0.516" tau="1.894">
            <param key="device.toc.automatedType" value="vehCVToCPE"/>
            <param key="device.toc.manualType" value="vehLVPE"/>
            <param key="has.toc.device" value="true"/>
            <param key="device.toc.mrmDecel" value="3.000"/>
            <param key="device.toc.recoveryRate" value="0.198"/>
            <param key="device.toc.initialAwareness" value="0.266"/>
            <param key="device.toc.useColorScheme" value="true"/>
            <param key="device.toc.responseTime" value="0.000"/>
        </vType>
        <vType accel="1.199" actionStepLength="0.100" carFollowModel="ACC" color="blue" decel="3.748" emergencyDecel="9.000" id="vehCVToCPE31" lcAssertive="0.443" tau="1.820">
            <param key="device.toc.automatedType" value="vehCVToCPE"/>
            <param key="device.toc.manualType" value="vehLVPE"/>
            <param key="has.toc.device" value="true"/>
            <param key="device.toc.mrmDecel" value="3.000"/>
            <param key="device.toc.recoveryRate" value="0.373"/>
            <param key="device.toc.initialAwareness" value="0.645"/>
            <param key="device.toc.useColorScheme" value="true"/>
            <param key="device.toc.responseTime" value="0.000"/>
        </vType>
        <vType accel="0.858" actionStepLength="0.100" carFollowModel="ACC" color="blue" decel="3.414" emergencyDecel="9.000" id="vehCVToCPE32" lcAssertive="0.529" tau="1.887">
            <param key="device.toc.automatedType" value="vehCVToCPE"/>
            <param key="device.toc.manualType" value="vehLVPE"/>
            <param key="has.toc.device" value="true"/>
            <param key="device.toc.mrmDecel" value="3.000"/>
            <param key="device.toc.recoveryRate" value="0.095"/>
            <param key="device.toc.initialAwareness" value="0.289"/>
            <param key="device.toc.useColorScheme" value="true"/>
            <param key="device.toc.responseTime" value="0.000"/>
        </vType>
        <vType accel="1.441" actionStepLength="0.100" carFollowModel="ACC" color="blue" decel="3.284" emergencyDecel="9.000" id="vehCVToCPE33" lcAssertive="0.536" tau="1.822">
            <param key="device.toc.automatedType" value="vehCVToCPE"/>
            <param key="device.toc.manualType" value="vehLVPE"/>
            <param key="has.toc.device" value="true"/>
            <param key="device.toc.mrmDecel" value="3.000"/>
            <param key="device.toc.recoveryRate" value="0.325"/>
            <param key="device.toc.initialAwareness" value="0.485"/>
            <param key="device.toc.useColorScheme" value="true"/>
            <param key="device.toc.responseTime" value="0.000"/>
        </vType>
        <vType accel="0.859" actionStepLength="0.100" carFollowModel="ACC" color="blue" decel="3.612" emergencyDecel="9.000" id="vehCVToCPE34" lcAssertive="0.469" tau="1.952">
            <param key="device.toc.automatedType" value="vehCVToCPE"/>
            <param key="device.toc.manualType" value="vehLVPE"/>
            <param key="has.toc.device" value="true"/>
            <param key="device.toc.mrmDecel" value="3.000"/>
            <param key="device.toc.recoveryRate" value="0.244"/>
            <param key="device.toc.initialAwareness" value="0.529"/>
            <param key="device.toc.useColorScheme" value="true"/>
            <param key="device.toc.responseTime" value="0.000"/>
        </vType>
        <vType accel="0.990" actionStepLength="0.100" carFollowModel="ACC" color="blue" decel="2.426" emergencyDecel="9.000" id="vehCVToCPE35" lcAssertive="0.549" tau="1.953">
            <param key="device.toc.automatedType" value="vehCVToCPE"/>
            <param key="device.toc.manualType" value="vehLVPE"/>
            <param key="has.toc.device" value="true"/>
            <param key="device.toc.mrmDecel" value="3.000"/>
            <param key="device.toc.recoveryRate" value="0.271"/>
            <param key="device.toc.initialAwareness" value="0.102"/>
            <param key="device.toc.useColorScheme" value="true"/>
            <param key="device.toc.responseTime" value="0.000"/>
        </vType>
        <vType accel="1.101" actionStepLength="0.100" carFollowModel="ACC" color="blue" decel="2.597" emergencyDecel="9.000" id="vehCVToCPE36" lcAssertive="0.578" tau="1.968">
            <param key="device.toc.automatedType" value="vehCVToCPE"/>
            <param key="device.toc.manualType" value="vehLVPE"/>
            <param key="has.toc.device" value="true"/>
            <param key="device.toc.mrmDecel" value="3.000"/>
            <param key="device.toc.recoveryRate" value="0.197"/>
            <param key="device.toc.initialAwareness" value="0.118"/>
            <param key="device.toc.useColorScheme" value="true"/>
            <param key="device.toc.responseTime" value="0.000"/>
        </vType>
        <vType accel="0.799" actionStepLength="0.100" carFollowModel="ACC" color="blue" decel="2.482" emergencyDecel="9.000" id="vehCVToCPE37" lcAssertive="0.434" tau="1.872">
            <param key="device.toc.automatedType" value="vehCVToCPE"/>
            <param key="device.toc.manualType" value="vehLVPE"/>
            <param key="has.toc.device" value="true"/>
            <param key="device.toc.mrmDecel" value="3.000"/>
            <param key="device.toc.recoveryRate" value="0.294"/>
            <param key="device.toc.initialAwareness" value="0.385"/>
            <param key="device.toc.useColorScheme" value="true"/>
            <param key="device.toc.responseTime" value="0.000"/>
        </vType>
        <vType accel="1.596" actionStepLength="0.100" carFollowModel="ACC" color="blue" decel="3.201" emergencyDecel="9.000" id="vehCVToCPE38" lcAssertive="0.548" tau="1.988">
            <param key="device.toc.automatedType" value="vehCVToCPE"/>
            <param key="device.toc.manualType" value="vehLVPE"/>
            <param key="has.toc.device" value="true"/>
            <param key="device.toc.mrmDecel" value="3.000"/>
            <param key="device.toc.recoveryRate" value="0.263"/>
            <param key="device.toc.initialAwareness" value="0.636"/>
            <param key="device.toc.useColorScheme" value="true"/>
            <param key="device.toc.responseTime" value="0.000"/>
        </vType>
        <vType accel="1.341" actionStepLength="0.100" carFollowModel="ACC" color="blue" decel="2.625" emergencyDecel="9.000" id="vehCVToCPE39" lcAssertive="0.534" tau="1.978">
            <param key="device.toc.automatedType" value="vehCVToCPE"/>
            <param key="device.toc.manualType" value="vehLVPE"/>
            <param key="has.toc.device" value="true"/>
            <param key="device.toc.mrmDecel" value="3.000"/>
            <param key="device.toc.recoveryRate" value="0.149"/>
            <param key="device.toc.initialAwareness" value="0.224"/>
            <param key="device.toc.useColorScheme" value="true"/>
            <param key="device.toc.responseTime" value="0.000"/>
        </vType>
        <vType accel="1.766" actionStepLength="0.100" carFollowModel="ACC" color="blue" decel="3.170" emergencyDecel="9.000" id="vehCVToCPE40" lcAssertive="0.404" tau="1.933">
            <param key="device.toc.automatedType" value="vehCVToCPE"/>
            <param key="device.toc.manualType" value="vehLVPE"/>
            <param key="has.toc.device" value="true"/>
            <param key="device.toc.mrmDecel" value="3.000"/>
            <param key="device.toc.recoveryRate" value="0.125"/>
            <param key="device.toc.initialAwareness" value="0.404"/>
            <param key="device.toc.useColorScheme" value="true"/>
            <param key="device.toc.responseTime" value="0.000"/>
        </vType>
        <vType accel="1.302" actionStepLength="0.100" carFollowModel="ACC" color="blue" decel="3.236" emergencyDecel="9.000" id="vehCVToCPE41" lcAssertive="0.479" tau="1.903">
            <param key="device.toc.automatedType" value="vehCVToCPE"/>
            <param key="device.toc.manualType" value="vehLVPE"/>
            <param key="has.toc.device" value="true"/>
            <param key="device.toc.mrmDecel" value="3.000"/>
            <param key="device.toc.recoveryRate" value="0.250"/>
            <param key="device.toc.initialAwareness" value="0.461"/>
            <param key="device.toc.useColorScheme" value="true"/>
            <param key="device.toc.responseTime" value="0.000"/>
        </vType>