<additional xmlns:xsi="http://www.w3.org/2001/XMLSchema-instance" xsi:noNamespaceSchemaLocation="http://sumo.dlr.de/xsd/additional_file.xsd">
    <vTypeDistribution id="vehCVToCMSE">
        <vType accel="1.362" actionStepLength="0.100" carFollowModel="ACC" color="blue" decel="2.024" emergencyDecel="9.000" id="vehCVToCMSE0" lcAssertive="0.668" tau="1.649">
            <param key="device.toc.automatedType" value="vehCVToCMSE"/>
            <param key="device.toc.manualType" value="vehLVMSE"/>
            <param key="has.toc.device" value="true"/>
            <param key="device.toc.mrmDecel" value="3.000"/>
            <param key="device.toc.recoveryRate" value="0.150"/>
            <param key="device.toc.initialAwareness" value="0.670"/>
            <param key="device.toc.useColorScheme" value="true"/>
            <param key="device.toc.responseTime" value="0.000"/>
        </vType>
        <vType accel="1.868" actionStepLength="0.100" carFollowModel="ACC" color="blue" decel="2.343" emergencyDecel="9.000" id="vehCVToCMSE1" lcAssertive="0.605" tau="1.507">
            <param key="device.toc.automatedType" value="vehCVToCMSE"/>
            <param key="device.toc.manualType" value="vehLVMSE"/>
            <param key="has.toc.device" value="true"/>
            <param key="device.toc.mrmDecel" value="3.000"/>
            <param key="device.toc.recoveryRate" value="0.348"/>
            <param key="device.toc.initialAwareness" value="0.218"/>
            <param key="device.toc.useColorScheme" value="true"/>
            <param key="device.toc.responseTime" value="0.000"/>
        </vType>
        <vType accel="1.810" actionStepLength="0.100" carFollowModel="ACC" color="blue" decel="2.568" emergencyDecel="9.000" id="vehCVToCMSE2" lcAssertive="0.744" tau="1.673">
            <param key="device.toc.automatedType" value="vehCVToCMSE"/>
            <param key="device.toc.manualType" value="vehLVMSE"/>
            <param key="has.toc.device" value="true"/>
            <param key="device.toc.mrmDecel" value="3.000"/>
            <param key="device.toc.recoveryRate" value="0.172"/>
            <param key="device.toc.initialAwareness" value="0.783"/>
            <param key="device.toc.useColorScheme" value="true"/>
            <param key="device.toc.responseTime" value="0.000"/>
        </vType>
        <vType accel="1.279" actionStepLength="0.100" carFollowModel="ACC" color="blue" decel="3.867" emergencyDecel="9.000" id="vehCVToCMSE3" lcAssertive="0.767" tau="1.493">
            <param key="device.toc.automatedType" value="vehCVToCMSE"/>
            <param key="device.toc.manualType" value="vehLVMSE"/>
            <param key="has.toc.device" value="true"/>
            <param key="device.toc.mrmDecel" value="3.000"/>
            <param key="device.toc.recoveryRate" value="0.214"/>
            <param key="device.toc.initialAwareness" value="0.137"/>
            <param key="device.toc.useColorScheme" value="true"/>
            <param key="device.toc.responseTime" value="0.000"/>
        </vType>
        <vType accel="1.501" actionStepLength="0.100" carFollowModel="ACC" color="blue" decel="2.042" emergencyDecel="9.000" id="vehCVToCMSE4" lcAssertive="0.798" tau="1.377">
            <param key="device.toc.automatedType" value="vehCVToCMSE"/>
            <param key="device.toc.manualType" value="vehLVMSE"/>
            <param key="has.toc.device" value="true"/>
            <param key="device.toc.mrmDecel" value="3.000"/>
            <param key="device.toc.recoveryRate" value="0.082"/>
            <param key="device.toc.initialAwareness" value="0.566"/>
            <param key="device.toc.useColorScheme" value="true"/>
            <param key="device.toc.responseTime" value="0.000"/>
        </vType>
        <vType accel="1.406" actionStepLength="0.100" carFollowModel="ACC" color="blue" decel="2.833" emergencyDecel="9.000" id="vehCVToCMSE5" lcAssertive="0.626" tau="1.530">
            <param key="device.toc.automatedType" value="vehCVToCMSE"/>
            <param key="device.toc.manualType" value="vehLVMSE"/>
            <param key="has.toc.device" value="true"/>
            <param key="device.toc.mrmDecel" value="3.000"/>
            <param key="device.toc.recoveryRate" value="0.062"/>
            <param key="device.toc.initialAwareness" value="0.575"/>
            <param key="device.toc.useColorScheme" value="true"/>
            <param key="device.toc.responseTime" value="0.000"/>
        </vType>
        <vType accel="0.825" actionStepLength="0.100" carFollowModel="ACC" color="blue" decel="2.406" emergencyDecel="9.000" id="vehCVToCMSE6" lcAssertive="0.678" tau="1.556">
            <param key="device.toc.automatedType" value="vehCVToCMSE"/>
            <param key="device.toc.manualType" value="vehLVMSE"/>
            <param key="has.toc.device" value="true"/>
            <param key="device.toc.mrmDecel" value="3.000"/>
            <param key="device.toc.recoveryRate" value="0.116"/>
            <param key="device.toc.initialAwareness" value="0.331"/>
            <param key="device.toc.useColorScheme" value="true"/>
            <param key="device.toc.responseTime" value="0.000"/>
        </vType>
        <vType accel="1.254" actionStepLength="0.100" carFollowModel="ACC" color="blue" decel="2.747" emergencyDecel="9.000" id="vehCVToCMSE7" lcAssertive="0.604" tau="1.730">
            <param key="device.toc.automatedType" value="vehCVToCMSE"/>
            <param key="device.toc.manualType" value="vehLVMSE"/>
            <param key="has.toc.device" value="true"/>
            <param key="device.toc.mrmDecel" value="3.000"/>
            <param key="device.toc.recoveryRate" value="0.078"/>
            <param key="device.toc.initialAwareness" value="0.748"/>
            <param key="device.toc.useColorScheme" value="true"/>
            <param key="device.toc.responseTime" value="0.000"/>
        </vType>
        <vType accel="1.591" actionStepLength="0.100" carFollowModel="ACC" color="blue" decel="3.718" emergencyDecel="9.000" id="vehCVToCMSE8" lcAssertive="0.682" tau="1.563">
            <param key="device.toc.automatedType" value="vehCVToCMSE"/>
            <param key="device.toc.manualType" value="vehLVMSE"/>
            <param key="has.toc.device" value="true"/>
            <param key="device.toc.mrmDecel" value="3.000"/>
            <param key="device.toc.recoveryRate" value="0.130"/>
            <param key="device.toc.initialAwareness" value="0.491"/>
            <param key="device.toc.useColorScheme" value="true"/>
            <param key="device.toc.responseTime" value="0.000"/>
        </vType>
        <vType accel="1.787" actionStepLength="0.100" carFollowModel="ACC" color="blue" decel="3.033" emergencyDecel="9.000" id="vehCVToCMSE9" lcAssertive="0.750" tau="1.573">
            <param key="device.toc.automatedType" value="vehCVToCMSE"/>
            <param key="device.toc.manualType" value="vehLVMSE"/>
            <param key="has.toc.device" value="true"/>
            <param key="device.toc.mrmDecel" value="3.000"/>
            <param key="device.toc.recoveryRate" value="0.234"/>
            <param key="device.toc.initialAwareness" value="0.235"/>
            <param key="device.toc.useColorScheme" value="true"/>
            <param key="device.toc.responseTime" value="0.000"/>
        </vType>
        <vType accel="1.926" actionStepLength="0.100" carFollowModel="ACC" color="blue" decel="2.667" emergencyDecel="9.000" id="vehCVToCMSE10" lcAssertive="0.626" tau="1.497">
            <param key="device.toc.automatedType" value="vehCVToCMSE"/>
            <param key="device.toc.manualType" value="vehLVMSE"/>
            <param key="has.toc.device" value="true"/>
            <param key="device.toc.mrmDecel" value="3.000"/>
            <param key="device.toc.recoveryRate" value="0.289"/>
            <param key="device.toc.initialAwareness" value="0.680"/>
            <param key="device.toc.useColorScheme" value="true"/>
            <param key="device.toc.responseTime" value="0.000"/>
        </vType>
        <vType accel="1.234" actionStepLength="0.100" carFollowModel="ACC" color="blue" decel="3.776" emergencyDecel="9.000" id="vehCVToCMSE11" lcAssertive="0.747" tau="1.684">
            <param key="device.toc.automatedType" value="vehCVToCMSE"/>
            <param key="device.toc.manualType" value="vehLVMSE"/>
            <param key="has.toc.device" value="true"/>
            <param key="device.toc.mrmDecel" value="3.000"/>
            <param key="device.toc.recoveryRate" value="0.073"/>
            <param key="device.toc.initialAwareness" value="0.204"/>
            <param key="device.toc.useColorScheme" value="true"/>
            <param key="device.toc.responseTime" value="0.000"/>
        </vType>
        <vType accel="1.319" actionStepLength="0.100" carFollowModel="ACC" color="blue" decel="3.319" emergencyDecel="9.000" id="vehCVToCMSE12" lcAssertive="0.687" tau="1.663">
            <param key="device.toc.automatedType" value="vehCVToCMSE"/>
            <param key="device.toc.manualType" value="vehLVMSE"/>
            <param key="has.toc.device" value="true"/>
            <param key="device.toc.mrmDecel" value="3.000"/>
            <param key="device.toc.recoveryRate" value="0.179"/>
            <param key="device.toc.initialAwareness" value="0.777"/>
            <param key="device.toc.useColorScheme" value="true"/>
            <param key="device.toc.responseTime" value="0.000"/>
        </vType>
        <vType accel="1.021" actionStepLength="0.100" carFollowModel="ACC" color="blue" decel="2.577" emergencyDecel="9.000" id="vehCVToCMSE13" lcAssertive="0.755" tau="1.462">
            <param key="device.toc.automatedType" value="vehCVToCMSE"/>
            <param key="device.toc.manualType" value="vehLVMSE"/>
            <param key="has.toc.device" value="true"/>
            <param key="device.toc.mrmDecel" value="3.000"/>
            <param key="device.toc.recoveryRate" value="0.287"/>
            <param key="device.toc.initialAwareness" value="0.718"/>
            <param key="device.toc.useColorScheme" value="true"/>
            <param key="device.toc.responseTime" value="0.000"/>
        </vType>
        <vType accel="1.904" actionStepLength="0.100" carFollowModel="ACC" color="blue" decel="3.571" emergencyDecel="9.000" id="vehCVToCMSE14" lcAssertive="0.653" tau="1.580">
            <param key="device.toc.automatedType" value="vehCVToCMSE"/>
            <param key="device.toc.manualType" value="vehLVMSE"/>
            <param key="has.toc.device" value="true"/>
            <param key="device.toc.mrmDecel" value="3.000"/>
            <param key="device.toc.recoveryRate" value="0.266"/>
            <param key="device.toc.initialAwareness" value="0.612"/>
            <param key="device.toc.useColorScheme" value="true"/>
            <param key="device.toc.responseTime" value="0.000"/>
        </vType>
        <vType accel="1.250" actionStepLength="0.100" carFollowModel="ACC" color="blue" decel="3.421" emergencyDecel="9.000" id="vehCVToCMSE15" lcAssertive="0.645" tau="1.311">
            <param key="device.toc.automatedType" value="vehCVToCMSE"/>
            <param key="device.toc.manualType" value="vehLVMSE"/>
            <param key="has.toc.device" value="true"/>
            <param key="device.toc.mrmDecel" value="3.000"/>
            <param key="device.toc.recoveryRate" value="0.224"/>
            <param key="device.toc.initialAwareness" value="0.662"/>
            <param key="device.toc.useColorScheme" value="true"/>
            <param key="device.toc.responseTime" value="0.000"/>
        </vType>
        <vType accel="1.214" actionStepLength="0.100" carFollowModel="ACC" color="blue" decel="3.496" emergencyDecel="9.000" id="vehCVToCMSE16" lcAssertive="0.653" tau="1.552">
            <param key="device.toc.automatedType" value="vehCVToCMSE"/>
            <param key="device.toc.manualType" value="vehLVMSE"/>
            <param key="has.toc.device" value="true"/>
            <param key="device.toc.mrmDecel" value="3.000"/>
            <param key="device.toc.recoveryRate" value="0.090"/>
            <param key="device.toc.initialAwareness" value="0.462"/>
            <param key="device.toc.useColorScheme" value="true"/>
            <param key="device.toc.responseTime" value="0.000"/>
        </vType>
        <vType accel="1.843" actionStepLength="0.100" carFollowModel="ACC" color="blue" decel="3.382" emergencyDecel="9.000" id="vehCVToCMSE17" lcAssertive="0.660" tau="1.722">
            <param key="device.toc.automatedType" value="vehCVToCMSE"/>
            <param key="device.toc.manualType" value="vehLVMSE"/>
            <param key="has.toc.device" value="true"/>
            <param key="device.toc.mrmDecel" value="3.000"/>
            <param key="device.toc.recoveryRate" value="0.053"/>
            <param key="device.toc.initialAwareness" value="0.250"/>
            <param key="device.toc.useColorScheme" value="true"/>
            <param key="device.toc.responseTime" value="0.000"/>
        </vType>
        <vType accel="1.532" actionStepLength="0.100" carFollowModel="ACC" color="blue" decel="2.624" emergencyDecel="9.000" id="vehCVToCMSE18" lcAssertive="0.694" tau="1.597">
            <param key="device.toc.automatedType" value="vehCVToCMSE"/>
            <param key="device.toc.manualType" value="vehLVMSE"/>
            <param key="has.toc.device" value="true"/>
            <param key="device.toc.mrmDecel" value="3.000"/>
            <param key="device.toc.recoveryRate" value="0.387"/>
            <param key="device.toc.initialAwareness" value="0.728"/>
            <param key="device.toc.useColorScheme" value="true"/>
            <param key="device.toc.responseTime" value="0.000"/>
        </vType>
        <vType accel="1.800" actionStepLength="0.100" carFollowModel="ACC" color="blue" decel="2.424" emergencyDecel="9.000" id="vehCVToCMSE19" lcAssertive="0.738" tau="1.361">
            <param key="device.toc.automatedType" value="vehCVToCMSE"/>
            <param key="device.toc.manualType" value="vehLVMSE"/>
            <param key="has.toc.device" value="true"/>
            <param key="device.toc.mrmDecel" value="3.000"/>
            <param key="device.toc.recoveryRate" value="0.295"/>
            <param key="device.toc.initialAwareness" value="0.524"/>
            <param key="device.toc.useColorScheme" value="true"/>
            <param key="device.toc.responseTime" value="0.000"/>
        </vType>
        <vType accel="1.974" actionStepLength="0.100" carFollowModel="ACC" color="blue" decel="2.450" emergencyDecel="9.000" id="vehCVToCMSE20" lcAssertive="0.639" tau="1.531">
            <param key="device.toc.automatedType" value="vehCVToCMSE"/>
            <param key="device.toc.manualType" value="vehLVMSE"/>
            <param key="has.toc.device" value="true"/>
            <param key="device.toc.mrmDecel" value="3.000"/>
            <param key="device.toc.recoveryRate" value="0.182"/>
            <param key="device.toc.initialAwareness" value="0.560"/>
            <param key="device.toc.useColorScheme" value="true"/>
            <param key="device.toc.responseTime" value="0.000"/>
        </vType>
        <vType accel="1.303" actionStepLength="0.100" carFollowModel="ACC" color="blue" decel="2.936" emergencyDecel="9.000" id="vehCVToCMSE21" lcAssertive="0.658" tau="1.577">
            <param key="device.toc.automatedType" value="vehCVToCMSE"/>
            <param key="device.toc.manualType" value="vehLVMSE"/>
            <param key="has.toc.device" value="true"/>
            <param key="device.toc.mrmDecel" value="3.000"/>
            <param key="device.toc.recoveryRate" value="0.112"/>
            <param key="device.toc.initialAwareness" value="0.565"/>
            <param key="device.toc.useColorScheme" value="true"/>
            <param key="device.toc.responseTime" value="0.000"/>
        </vType>
        <vType accel="0.765" actionStepLength="0.100" carFollowModel="ACC" color="blue" decel="3.722" emergencyDecel="9.000" id="vehCVToCMSE22" lcAssertive="0.714" tau="1.368">
            <param key="device.toc.automatedType" value="vehCVToCMSE"/>
            <param key="device.toc.manualType" value="vehLVMSE"/>
            <param key="has.toc.device" value="true"/>
            <param key="device.toc.mrmDecel" value="3.000"/>
            <param key="device.toc.recoveryRate" value="0.076"/>
            <param key="device.toc.initialAwareness" value="0.361"/>
            <param key="device.toc.useColorScheme" value="true"/>
            <param key="device.toc.responseTime" value="0.000"/>
        </vType>
        <vType accel="1.899" actionStepLength="0.100" carFollowModel="ACC" color="blue" decel="3.877" emergencyDecel="9.000" id="vehCVToCMSE23" lcAssertive="0.774" tau="1.310">
            <param key="device.toc.automatedType" value="vehCVToCMSE"/>
            <param key="device.toc.manualType" value="vehLVMSE"/>
            <param key="has.toc.device" value="true"/>
            <param key="device.toc.mrmDecel" value="3.000"/>
            <param key="device.toc.recoveryRate" value="0.248"/>
            <param key="device.toc.initialAwareness" value="0.951"/>
            <param key="device.toc.useColorScheme" value="true"/>
            <param key="device.toc.responseTime" value="0.000"/>
        </vType>
        <vType accel="1.627" actionStepLength="0.100" carFollowModel="ACC" color="blue" decel="2.589" emergencyDecel="9.000" id="vehCVToCMSE24" lcAssertive="0.684" tau="1.561">
            <param key="device.toc.automatedType" value="vehCVToCMSE"/>
            <param key="device.toc.manualType" value="vehLVMSE"/>
            <param key="has.toc.device" value="true"/>
            <param key="device.toc.mrmDecel" value="3.000"/>
            <param key="device.toc.recoveryRate" value="0.202"/>
            <param key="device.toc.initialAwareness" value="0.760"/>
            <param key="device.toc.useColorScheme" value="true"/>
            <param key="device.toc.responseTime" value="0.000"/>
        </vType>
        <vType accel="1.977" actionStepLength="0.100" carFollowModel="ACC" color="blue" decel="2.919" emergencyDecel="9.000" id="vehCVToCMSE25" lcAssertive="0.692" tau="1.557">
            <param key="device.toc.automatedType" value="vehCVToCMSE"/>
            <param key="device.toc.manualType" value="vehLVMSE"/>
            <param key="has.toc.device" value="true"/>
            <param key="device.toc.mrmDecel" value="3.000"/>
            <param key="device.toc.recoveryRate" value="0.274"/>
            <param key="device.toc.initialAwareness" value="0.777"/>
            <param key="device.toc.useColorScheme" value="true"/>
            <param key="device.toc.responseTime" value="0.000"/>
        </vType>
        <vType accel="1.766" actionStepLength="0.100" carFollowModel="ACC" color="blue" decel="3.092" emergencyDecel="9.000" id="vehCVToCMSE26" lcAssertive="0.748" tau="1.421">
            <param key="device.toc.automatedType" value="vehCVToCMSE"/>
            <param key="device.toc.manualType" value="vehLVMSE"/>
            <param key="has.toc.device" value="true"/>
            <param key="device.toc.mrmDecel" value="3.000"/>
            <param key="device.toc.recoveryRate" value="0.247"/>
            <param key="device.toc.initialAwareness" value="0.689"/>
            <param key="device.toc.useColorScheme" value="true"/>
            <param key="device.toc.responseTime" value="0.000"/>
        </vType>
        <vType accel="1.759" actionStepLength="0.100" carFollowModel="ACC" color="blue" decel="2.311" emergencyDecel="9.000" id="vehCVToCMSE27" lcAssertive="0.659" tau="1.503">
            <param key="device.toc.automatedType" value="vehCVToCMSE"/>
            <param key="device.toc.manualType" value="vehLVMSE"/>
            <param key="has.toc.device" value="true"/>
            <param key="device.toc.mrmDecel" value="3.000"/>
            <param key="device.toc.recoveryRate" value="0.140"/>
            <param key="device.toc.initialAwareness" value="0.470"/>
            <param key="device.toc.useColorScheme" value="true"/>
            <param key="device.toc.responseTime" value="0.000"/>
        </vType>
        <vType accel="1.888" actionStepLength="0.100" carFollowModel="ACC" color="blue" decel="2.906" emergencyDecel="9.000" id="vehCVToCMSE28" lcAssertive="0.792" tau="1.464">
            <param key="device.toc.automatedType" value="vehCVToCMSE"/>
            <param key="device.toc.manualType" value="vehLVMSE"/>
            <param key="has.toc.device" value="true"/>
            <param key="device.toc.mrmDecel" value="3.000"/>
            <param key="device.toc.recoveryRate" value="0.208"/>
            <param key="device.toc.initialAwareness" value="0.935"/>
            <param key="device.toc.useColorScheme" value="true"/>
            <param key="device.toc.responseTime" value="0.000"/>
        </vType>
        <vType accel="1.570" actionStepLength="0.100" carFollowModel="ACC" color="blue" decel="2.297" emergencyDecel="9.000" id="vehCVToCMSE29" lcAssertive="0.636" tau="1.631">
            <param key="device.toc.automatedType" value="vehCVToCMSE"/>
            <param key="device.toc.manualType" value="vehLVMSE"/>
            <param key="has.toc.device" value="true"/>
            <param key="device.toc.mrmDecel" value="3.000"/>
            <param key="device.toc.recoveryRate" value="0.315"/>
            <param key="device.toc.initialAwareness" value="0.660"/>
            <param key="device.toc.useColorScheme" value="true"/>
            <param key="device.toc.responseTime" value="0.000"/>
        </vType>
        <vType accel="1.218" actionStepLength="0.100" carFollowModel="ACC" color="blue" decel="2.172" emergencyDecel="9.000" id="vehCVToCMSE30" lcAssertive="0.659" tau="1.665">
            <param key="device.toc.automatedType" value="vehCVToCMSE"/>
            <param key="device.toc.manualType" value="vehLVMSE"/>
            <param key="has.toc.device" value="true"/>
            <param key="device.toc.mrmDecel" value="3.000"/>
            <param key="device.toc.recoveryRate" value="0.223"/>
            <param key="device.toc.initialAwareness" value="0.797"/>
            <param key="device.toc.useColorScheme" value="true"/>
            <param key="device.toc.responseTime" value="0.000"/>
        </vType>
        <vType accel="1.093" actionStepLength="0.100" carFollowModel="ACC" color="blue" decel="3.405" emergencyDecel="9.000" id="vehCVToCMSE31" lcAssertive="0.787" tau="1.598">
            <param key="device.toc.automatedType" value="vehCVToCMSE"/>
            <param key="device.toc.manualType" value="vehLVMSE"/>
            <param key="has.toc.device" value="true"/>
            <param key="device.toc.mrmDecel" value="3.000"/>
            <param key="device.toc.recoveryRate" value="0.061"/>
            <param key="device.toc.initialAwareness" value="0.456"/>
            <param key="device.toc.useColorScheme" value="true"/>
            <param key="device.toc.responseTime" value="0.000"/>
        </vType>
        <vType accel="1.109" actionStepLength="0.100" carFollowModel="ACC" color="blue" decel="2.047" emergencyDecel="9.000" id="vehCVToCMSE32" lcAssertive="0.689" tau="1.680">
            <param key="device.toc.automatedType" value="vehCVToCMSE"/>
            <param key="device.toc.manualType" value="vehLVMSE"/>
            <param key="has.toc.device" value="true"/>
            <param key="device.toc.mrmDecel" value="3.000"/>
            <param key="device.toc.recoveryRate" value="0.198"/>
            <param key="device.toc.initialAwareness" value="0.859"/>
            <param key="device.toc.useColorScheme" value="true"/>
            <param key="device.toc.responseTime" value="0.000"/>
        </vType>
        <vType accel="1.148" actionStepLength="0.100" carFollowModel="ACC" color="blue" decel="3.246" emergencyDecel="9.000" id="vehCVToCMSE33" lcAssertive="0.710" tau="1.532">
            <param key="device.toc.automatedType" value="vehCVToCMSE"/>
            <param key="device.toc.manualType" value="vehLVMSE"/>
            <param key="has.toc.device" value="true"/>
            <param key="device.toc.mrmDecel" value="3.000"/>
            <param key="device.toc.recoveryRate" value="0.212"/>
            <param key="device.toc.initialAwareness" value="0.109"/>
            <param key="device.toc.useColorScheme" value="true"/>
            <param key="device.toc.responseTime" value="0.000"/>
        </vType>
        <vType accel="1.643" actionStepLength="0.100" carFollowModel="ACC" color="blue" decel="3.074" emergencyDecel="9.000" id="vehCVToCMSE34" lcAssertive="0.698" tau="1.585">
            <param key="device.toc.automatedType" value="vehCVToCMSE"/>
            <param key="device.toc.manualType" value="vehLVMSE"/>
            <param key="has.toc.device" value="true"/>
            <param key="device.toc.mrmDecel" value="3.000"/>
            <param key="device.toc.recoveryRate" value="0.314"/>
            <param key="device.toc.initialAwareness" value="0.341"/>
            <param key="device.toc.useColorScheme" value="true"/>
            <param key="device.toc.responseTime" value="0.000"/>
        </vType>
        <vType accel="1.387" actionStepLength="0.100" carFollowModel="ACC" color="blue" decel="3.161" emergencyDecel="9.000" id="vehCVToCMSE35" lcAssertive="0.787" tau="1.620">
            <param key="device.toc.automatedType" value="vehCVToCMSE"/>
            <param key="device.toc.manualType" value="vehLVMSE"/>
            <param key="has.toc.device" value="true"/>
            <param key="device.toc.mrmDecel" value="3.000"/>
            <param key="device.toc.recoveryRate" value="0.220"/>
            <param key="device.toc.initialAwareness" value="0.927"/>
            <param key="device.toc.useColorScheme" value="true"/>
            <param key="device.toc.responseTime" value="0.000"/>
        </vType>
        <vType accel="1.814" actionStepLength="0.100" carFollowModel="ACC" color="blue" decel="2.099" emergencyDecel="9.000" id="vehCVToCMSE36" lcAssertive="0.775" tau="1.616">
            <param key="device.toc.automatedType" value="vehCVToCMSE"/>
            <param key="device.toc.manualType" value="vehLVMSE"/>
            <param key="has.toc.device" value="true"/>
            <param key="device.toc.mrmDecel" value="3.000"/>
            <param key="device.toc.recoveryRate" value="0.265"/>
            <param key="device.toc.initialAwareness" value="0.410"/>
            <param key="device.toc.useColorScheme" value="true"/>
            <param key="device.toc.responseTime" value="0.000"/>
        </vType>
        <vType accel="0.933" actionStepLength="0.100" carFollowModel="ACC" color="blue" decel="2.358" emergencyDecel="9.000" id="vehCVToCMSE37" lcAssertive="0.616" tau="1.487">
            <param key="device.toc.automatedType" value="vehCVToCMSE"/>
            <param key="device.toc.manualType" value="vehLVMSE"/>
            <param key="has.toc.device" value="true"/>
            <param key="device.toc.mrmDecel" value="3.000"/>
            <param key="device.toc.recoveryRate" value="0.070"/>
            <param key="device.toc.initialAwareness" value="0.624"/>
            <param key="device.toc.useColorScheme" value="true"/>
            <param key="device.toc.responseTime" value="0.000"/>
        </vType>
        <vType accel="1.441" actionStepLength="0.100" carFollowModel="ACC" color="blue" decel="3.284" emergencyDecel="9.000" id="vehCVToCMSE38" lcAssertive="0.736" tau="1.592">
            <param key="device.toc.automatedType" value="vehCVToCMSE"/>
            <param key="device.toc.manualType" value="vehLVMSE"/>
            <param key="has.toc.device" value="true"/>
            <param key="device.toc.mrmDecel" value="3.000"/>
            <param key="device.toc.recoveryRate" value="0.229"/>
            <param key="device.toc.initialAwareness" value="0.685"/>
            <param key="device.toc.useColorScheme" value="true"/>
            <param key="device.toc.responseTime" value="0.000"/>
        </vType>
        <vType accel="0.859" actionStepLength="0.100" carFollowModel="ACC" color="blue" decel="3.612" emergencyDecel="9.000" id="vehCVToCMSE39" lcAssertive="0.669" tau="1.552">
            <param key="device.toc.automatedType" value="vehCVToCMSE"/>
            <param key="device.toc.manualType" value="vehLVMSE"/>
            <param key="has.toc.device" value="true"/>
            <param key="device.toc.mrmDecel" value="3.000"/>
            <param key="device.toc.recoveryRate" value="0.244"/>
            <param key="device.toc.initialAwareness" value="0.729"/>
            <param key="device.toc.useColorScheme" value="true"/>
            <param key="device.toc.responseTime" value="0.000"/>
        </vType>
        <vType accel="0.990" actionStepLength="0.100" carFollowModel="ACC" color="blue" decel="2.426" emergencyDecel="9.000" id="vehCVToCMSE40" lcAssertive="0.749" tau="1.380">
            <param key="device.toc.automatedType" value="vehCVToCMSE"/>
            <param key="device.toc.manualType" value="vehLVMSE"/>
            <param key="has.toc.device" value="true"/>
            <param key="device.toc.mrmDecel" value="3.000"/>
            <param key="device.toc.recoveryRate" value="0.176"/>
            <param key="device.toc.initialAwareness" value="0.302"/>
            <param key="device.toc.useColorScheme" value="true"/>
            <param key="device.toc.responseTime" value="0.000"/>
        </vType>
        <vType accel="1.101" actionStepLength="0.100" carFollowModel="ACC" color="blue" decel="2.597" emergencyDecel="9.000" id="vehCVToCMSE41" lcAssertive="0.778" tau="1.568">
            <param key="device.toc.automatedType" value="vehCVToCMSE"/>
            <param key="device.toc.manualType" value="vehLVMSE"/>
            <param key="has.toc.device" value="true"/>
            <param key="device.toc.mrmDecel" value="3.000"/>
            <param key="device.toc.recoveryRate" value="0.197"/>
            <param key="device.toc.initialAwareness" value="0.318"/>