<additional xmlns:xsi="http://www.w3.org/2001/XMLSchema-instance" xsi:noNamespaceSchemaLocation="http://sumo.dlr.de/xsd/additional_file.xsd">
    <vTypeDistribution id="vehLVPE">
        <vType accel="1.503" actionStepLength="0.100" carFollowModel="Krauss" color="yellow" decel="3.362" emergencyDecel="9.000" id="vehLVPE0" lcAssertive="1.300" sigma="0.483" speedFactor="0.905" tau="0.723"/>
        <vType accel="1.675" actionStepLength="0.100" carFollowModel="Krauss" color="yellow" decel="3.035" emergencyDecel="9.000" id="vehLVPE1" lcAssertive="1.300" sigma="0.383" speedFactor="1.174" tau="1.469"/>
        <vType accel="1.069" actionStepLength="0.100" carFollowModel="Krauss" color="yellow" decel="3.810" emergencyDecel="9.000" id="vehLVPE2" lcAssertive="1.300" sigma="0.671" speedFactor="1.014" tau="0.925"/>
        <vType accel="3.314" actionStepLength="0.100" carFollowModel="Krauss" color="yellow" decel="2.965" emergencyDecel="9.000" id="vehLVPE3" lcAssertive="1.300" sigma="0.910" speedFactor="1.129" tau="0.821"/>
        <vType accel="2.673" actionStepLength="0.100" carFollowModel="Krauss" color="yellow" decel="2.386" emergencyDecel="9.000" id="vehLVPE4" lcAssertive="1.300" sigma="0.638" speedFactor="0.864" tau="1.034"/>
        <vType accel="1.042" actionStepLength="0.100" carFollowModel="Krauss" color="yellow" decel="3.721" emergencyDecel="9.000" id="vehLVPE5" lcAssertive="1.300" sigma="0.462" speedFactor="1.030" tau="0.601"/>
        <vType accel="1.833" actionStepLength="0.100" carFollowModel="Krauss" color="yellow" decel="3.750" emergencyDecel="9.000" id="vehLVPE6" lcAssertive="1.300" sigma="0.090" speedFactor="0.951" tau="0.553"/>
        <vType accel="1.782" actionStepLength="0.100" carFollowModel="Krauss" color="yellow" decel="4.152" emergencyDecel="9.000" id="vehLVPE7" lcAssertive="1.300" sigma="0.077" speedFactor="0.857" tau="1.471"/>
        <vType accel="1.747" actionStepLength="0.100" carFollowModel="Krauss" color="yellow" decel="4.326" emergencyDecel="9.000" id="vehLVPE8" lcAssertive="1.300" sigma="0.107" speedFactor="0.907" tau="1.202"/>
        <vType accel="2.718" actionStepLength="0.100" carFollowModel="Krauss" color="yellow" decel="3.469" emergencyDecel="9.000" id="vehLVPE9" lcAssertive="1.300" sigma="0.133" speedFactor="1.064" tau="0.645"/>
        <vType accel="1.158" actionStepLength="0.100" carFollowModel="Krauss" color="yellow" decel="3.787" emergencyDecel="9.000" id="vehLVPE10" lcAssertive="1.300" sigma="0.451" speedFactor="1.107" tau="0.770"/>
        <vType accel="2.426" actionStepLength="0.100" carFollowModel="Krauss" color="yellow" decel="3.167" emergencyDecel="9.000" id="vehLVPE11" lcAssertive="1.300" sigma="0.410" speedFactor="0.952" tau="1.044"/>
        <vType accel="2.776" actionStepLength="0.100" carFollowModel="Krauss" color="yellow" decel="2.512" emergencyDecel="9.000" id="vehLVPE12" lcAssertive="1.300" sigma="0.356" speedFactor="1.194" tau="1.566"/>
        <vType accel="2.319" actionStepLength="0.100" carFollowModel="Krauss" color="yellow" decel="4.423" emergencyDecel="9.000" id="vehLVPE13" lcAssertive="1.300" sigma="0.962" speedFactor="1.075" tau="0.509"/>
        <vType accel="1.308" actionStepLength="0.100" carFollowModel="Krauss" color="yellow" decel="4.366" emergencyDecel="9.000" id="vehLVPE14" lcAssertive="1.300" sigma="0.564" speedFactor="1.004" tau="1.287"/>
        <vType accel="1.902" actionStepLength="0.100" carFollowModel="Krauss" color="yellow" decel="4.156" emergencyDecel="9.000" id="vehLVPE15" lcAssertive="1.300" sigma="0.740" speedFactor="1.181" tau="0.876"/>
        <vType accel="2.373" actionStepLength="0.100" carFollowModel="Krauss" color="yellow" decel="3.035" emergencyDecel="9.000" id="vehLVPE16" lcAssertive="1.300" sigma="0.318" speedFactor="0.811" tau="0.886"/>
        <vType accel="1.750" actionStepLength="0.100" carFollowModel="Krauss" color="yellow" decel="3.921" emergencyDecel="9.000" id="vehLVPE17" lcAssertive="1.300" sigma="0.081" speedFactor="0.989" tau="1.230"/>
        <vType accel="1.245" actionStepLength="0.100" carFollowModel="Krauss" color="yellow" decel="3.214" emergencyDecel="9.000" id="vehLVPE18" lcAssertive="1.300" sigma="0.137" speedFactor="1.199" tau="1.499"/>
        <vType accel="2.343" actionStepLength="0.100" carFollowModel="Krauss" color="yellow" decel="3.882" emergencyDecel="9.000" id="vehLVPE19" lcAssertive="1.300" sigma="0.002" speedFactor="0.933" tau="0.906"/>
        <vType accel="2.032" actionStepLength="0.100" carFollowModel="Krauss" color="yellow" decel="3.124" emergencyDecel="9.000" id="vehLVPE20" lcAssertive="1.300" sigma="0.676" speedFactor="1.088" tau="0.594"/>
        <vType accel="1.424" actionStepLength="0.100" carFollowModel="Krauss" color="yellow" decel="3.580" emergencyDecel="9.000" id="vehLVPE21" lcAssertive="1.300" sigma="0.027" speedFactor="1.176" tau="0.750"/>
        <vType accel="2.474" actionStepLength="0.100" carFollowModel="Krauss" color="yellow" decel="2.468" emergencyDecel="9.000" id="vehLVPE22" lcAssertive="1.300" sigma="0.300" speedFactor="0.990" tau="0.509"/>
        <vType accel="1.124" actionStepLength="0.100" carFollowModel="Krauss" color="yellow" decel="3.303" emergencyDecel="9.000" id="vehLVPE23" lcAssertive="1.300" sigma="0.308" speedFactor="1.087" tau="0.543"/>
        <vType accel="1.537" actionStepLength="0.100" carFollowModel="Krauss" color="yellow" decel="3.640" emergencyDecel="9.000" id="vehLVPE24" lcAssertive="1.300" sigma="0.440" speedFactor="0.810" tau="0.961"/>
        <vType accel="2.399" actionStepLength="0.100" carFollowModel="Krauss" color="yellow" decel="4.377" emergencyDecel="9.000" id="vehLVPE25" lcAssertive="1.300" sigma="0.208" speedFactor="1.061" tau="1.251"/>
        <vType accel="2.630" actionStepLength="0.100" carFollowModel="Krauss" color="yellow" decel="3.627" emergencyDecel="9.000" id="vehLVPE26" lcAssertive="1.300" sigma="0.633" speedFactor="1.018" tau="1.279"/>
        <vType accel="1.786" actionStepLength="0.100" carFollowModel="Krauss" color="yellow" decel="4.236" emergencyDecel="9.000" id="vehLVPE27" lcAssertive="1.300" sigma="0.159" speedFactor="1.195" tau="0.522"/>
        <vType accel="1.924" actionStepLength="0.100" carFollowModel="Krauss" color="yellow" decel="2.603" emergencyDecel="9.000" id="vehLVPE28" lcAssertive="1.300" sigma="0.333" speedFactor="1.195" tau="1.062"/>
        <vType accel="2.630" actionStepLength="0.100" carFollowModel="Krauss" color="yellow" decel="3.977" emergencyDecel="9.000" id="vehLVPE29" lcAssertive="1.300" sigma="0.329" speedFactor="1.003" tau="0.646"/>
        <vType accel="1.586" actionStepLength="0.100" carFollowModel="Krauss" color="yellow" decel="2.821" emergencyDecel="9.000" id="vehLVPE30" lcAssertive="1.300" sigma="0.394" speedFactor="1.116" tau="0.551"/>
        <vType accel="1.906" actionStepLength="0.100" carFollowModel="Krauss" color="yellow" decel="4.422" emergencyDecel="9.000" id="vehLVPE31" lcAssertive="1.300" sigma="0.776" speedFactor="1.131" tau="1.221"/>
        <vType accel="2.070" actionStepLength="0.100" carFollowModel="Krauss" color="yellow" decel="2.797" emergencyDecel="9.000" id="vehLVPE32" lcAssertive="1.300" sigma="0.363" speedFactor="0.973" tau="0.922"/>
        <vType accel="2.638" actionStepLength="0.100" carFollowModel="Krauss" color="yellow" decel="3.218" emergencyDecel="9.000" id="vehLVPE33" lcAssertive="1.300" sigma="0.696" speedFactor="0.934" tau="0.714"/>
        <vType accel="1.988" actionStepLength="0.100" carFollowModel="Krauss" color="yellow" decel="2.110" emergencyDecel="9.000" id="vehLVPE34" lcAssertive="1.300" sigma="0.878" speedFactor="1.019" tau="1.139"/>
        <vType accel="1.855" actionStepLength="0.100" carFollowModel="Krauss" color="yellow" decel="4.372" emergencyDecel="9.000" id="vehLVPE35" lcAssertive="1.300" sigma="0.192" speedFactor="1.180" tau="0.802"/>
        <vType accel="1.887" actionStepLength="0.100" carFollowModel="Krauss" color="yellow" decel="3.161" emergencyDecel="9.000" id="vehLVPE36" lcAssertive="1.300" sigma="0.787" speedFactor="1.125" tau="1.198"/>
        <vType accel="3.167" actionStepLength="0.100" carFollowModel="Krauss" color="yellow" decel="3.148" emergencyDecel="9.000" id="vehLVPE37" lcAssertive="1.300" sigma="0.249" speedFactor="1.149" tau="0.880"/>
        <vType accel="3.136" actionStepLength="0.100" carFollowModel="Krauss" color="yellow" decel="4.257" emergencyDecel="9.000" id="vehLVPE38" lcAssertive="1.300" sigma="0.936" speedFactor="1.129" tau="0.563"/>
        <vType accel="1.469" actionStepLength="0.100" carFollowModel="Krauss" color="yellow" decel="3.479" emergencyDecel="9.000" id="vehLVPE39" lcAssertive="1.300" sigma="0.298" speedFactor="1.120" tau="0.637"/>
        <vType accel="2.161" actionStepLength="0.100" carFollowModel="Krauss" color="yellow" decel="4.370" emergencyDecel="9.000" id="vehLVPE40" lcAssertive="1.300" sigma="0.523" speedFactor="1.116" tau="0.544"/>
        <vType accel="1.099" actionStepLength="0.100" carFollowModel="Krauss" color="yellow" decel="3.199" emergencyDecel="9.000" id="vehLVPE41" lcAssertive="1.300" sigma="0.473" speedFactor="0.987" tau="0.757"/>
        <vType accel="1.433" actionStepLength="0.100" carFollowModel="Krauss" color="yellow" decel="2.449" emergencyDecel="9.000" id="vehLVPE42" lcAssertive="1.300" sigma="0.407" speedFactor="0.972" tau="1.436"/>
        <vType accel="2.290" actionStepLength="0.100" carFollowModel="Krauss" color="yellow" decel="2.609" emergencyDecel="9.000" id="vehLVPE43" lcAssertive="1.300" sigma="0.342" speedFactor="1.088" tau="0.581"/>
        <vType accel="3.093" actionStepLength="0.100" carFollowModel="Krauss" color="yellow" decel="3.863" emergencyDecel="9.000" id="vehLVPE44" lcAssertive="1.300" sigma="0.419" speedFactor="1.052" tau="0.909"/>
        <vType accel="2.763" actionStepLength="0.100" carFollowModel="Krauss" color="yellow" decel="3.187" emergencyDecel="9.000" id="vehLVPE45" lcAssertive="1.300" sigma="0.081" speedFactor="0.880" tau="0.906"/>
        <vType accel="1.123" actionStepLength="0.100" carFollowModel="Krauss" color="yellow" decel="2.990" emergencyDecel="9.000" id="vehLVPE46" lcAssertive="1.300" sigma="0.769" speedFactor="0.985" tau="0.956"/>
        <vType accel="2.492" actionStepLength="0.100" carFollowModel="Krauss" color="yellow" decel="3.338" emergencyDecel="9.000" id="vehLVPE47" lcAssertive="1.300" sigma="0.000" speedFactor="1.094" tau="1.259"/>
        <vType accel="2.779" actionStepLength="0.100" carFollowModel="Krauss" color="yellow" decel="3.670" emergencyDecel="9.000" id="vehLVPE48" lcAssertive="1.300" sigma="0.672" speedFactor="0.805" tau="1.147"/>
        <vType accel="1.335" actionStepLength="0.100" carFollowModel="Krauss" color="yellow" decel="4.375" emergencyDecel="9.000" id="vehLVPE49" lcAssertive="1.300" sigma="0.234" speedFactor="0.830" tau="0.742"/>
        <vType accel="2.626" actionStepLength="0.100" carFollowModel="Krauss" color="yellow" decel="2.472" emergencyDecel="9.000" id="vehLVPE50" lcAssertive="1.300" sigma="0.300" speedFactor="1.119" tau="0.570"/>
        <vType accel="2.483" actionStepLength="0.100" carFollowModel="Krauss" color="yellow" decel="3.392" emergencyDecel="9.000" id="vehLVPE51" lcAssertive="1.300" sigma="0.120" speedFactor="0.999" tau="1.160"/>
        <vType accel="2.338" actionStepLength="0.100" carFollowModel="Krauss" color="yellow" decel="3.167" emergencyDecel="9.000" id="vehLVPE52" lcAssertive="1.300" sigma="0.333" speedFactor="0.950" tau="1.203"/>
        <vType accel="2.347" actionStepLength="0.100" carFollowModel="Krauss" color="yellow" decel="2.543" emergencyDecel="9.000" id="vehLVPE53" lcAssertive="1.300" sigma="0.452" speedFactor="1.150" tau="0.685"/>
        <vType accel="1.802" actionStepLength="0.100" carFollowModel="Krauss" color="yellow" decel="3.736" emergencyDecel="9.000" id="vehLVPE54" lcAssertive="1.300" sigma="0.749" speedFactor="1.058" tau="1.332"/>
        <vType accel="2.540" actionStepLength="0.100" carFollowModel="Krauss" color="yellow" decel="3.363" emergencyDecel="9.000" id="vehLVPE55" lcAssertive="1.300" sigma="0.116" speedFactor="1.199" tau="0.805"/>
        <vType accel="2.300" actionStepLength="0.100" carFollowModel="Krauss" color="yellow" decel="3.052" emergencyDecel="9.000" id="vehLVPE56" lcAssertive="1.300" sigma="0.550" speedFactor="0.985" tau="0.898"/>
        <vType accel="2.617" actionStepLength="0.100" carFollowModel="Krauss" color="yellow" decel="4.281" emergencyDecel="9.000" id="vehLVPE57" lcAssertive="1.300" sigma="0.070" speedFactor="1.164" tau="0.752"/>
        <vType accel="2.708" actionStepLength="0.100" carFollowModel="Krauss" color="yellow" decel="2.744" emergencyDecel="9.000" id="vehLVPE58" lcAssertive="1.300" sigma="0.663" speedFactor="1.165" tau="1.135"/>
        <vType accel="2.303" actionStepLength="0.100" carFollowModel="Krauss" color="yellow" decel="3.757" emergencyDecel="9.000" id="vehLVPE59" lcAssertive="1.300" sigma="0.992" speedFactor="0.834" tau="1.509"/>
        <vType accel="2.448" actionStepLength="0.100" carFollowModel="Krauss" color="yellow" decel="2.916" emergencyDecel="9.000" id="vehLVPE60" lcAssertive="1.300" sigma="0.205" speedFactor="0.912" tau="0.611"/>
        <vType accel="2.427" actionStepLength="0.100" carFollowModel="Krauss" color="yellow" decel="2.815" emergencyDecel="9.000" id="vehLVPE61" lcAssertive="1.300" sigma="0.744" speedFactor="0.911" tau="1.303"/>
        <vType accel="2.672" actionStepLength="0.100" carFollowModel="Krauss" color="yellow" decel="3.934" emergencyDecel="9.000" id="vehLVPE62" lcAssertive="1.300" sigma="0.947" speedFactor="1.026" tau="1.414"/>
        <vType accel="1.748" actionStepLength="0.100" carFollowModel="Krauss" color="yellow" decel="4.135" emergencyDecel="9.000" id="vehLVPE63" lcAssertive="1.300" sigma="0.398" speedFactor="1.064" tau="0.863"/>
        <vType accel="2.774" actionStepLength="0.100" carFollowModel="Krauss" color="yellow" decel="3.584" emergencyDecel="9.000" id="vehLVPE64" lcAssertive="1.300" sigma="0.500" speedFactor="1.082" tau="0.533"/>
        <vType accel="2.843" actionStepLength="0.100" carFollowModel="Krauss" color="yellow" decel="4.121" emergencyDecel="9.000" id="vehLVPE65" lcAssertive="1.300" sigma="0.067" speedFactor="0.926" tau="1.320"/>
        <vType accel="1.128" actionStepLength="0.100" carFollowModel="Krauss" color="yellow" decel="3.411" emergencyDecel="9.000" id="vehLVPE66" lcAssertive="1.300" sigma="0.837" speedFactor="0.906" tau="1.217"/>
        <vType accel="1.063" actionStepLength="0.100" carFollowModel="Krauss" color="yellow" decel="3.142" emergencyDecel="9.000" id="vehLVPE67" lcAssertive="1.300" sigma="0.159" speedFactor="0.967" tau="1.013"/>
        <vType accel="1.483" actionStepLength="0.100" carFollowModel="Krauss" color="yellow" decel="3.185" emergencyDecel="9.000" id="vehLVPE68" lcAssertive="1.300" sigma="0.354" speedFactor="0.947" tau="1.462"/>
        <vType accel="1.645" actionStepLength="0.100" carFollowModel="Krauss" color="yellow" decel="4.255" emergencyDecel="9.000" id="vehLVPE69" lcAssertive="1.300" sigma="0.412" speedFactor="1.040" tau="0.645"/>
        <vType accel="3.199" actionStepLength="0.100" carFollowModel="Krauss" color="yellow" decel="3.397" emergencyDecel="9.000" id="vehLVPE70" lcAssertive="1.300" sigma="0.469" speedFactor="1.120" tau="0.500"/>
        <vType accel="3.104" actionStepLength="0.100" carFollowModel="Krauss" color="yellow" decel="3.444" emergencyDecel="9.000" id="vehLVPE71" lcAssertive="1.300" sigma="0.411" speedFactor="1.133" tau="1.070"/>
        <vType accel="2.115" actionStepLength="0.100" carFollowModel="Krauss" color="yellow" decel="2.665" emergencyDecel="9.000" id="vehLVPE72" lcAssertive="1.300" sigma="0.067" speedFactor="1.018" tau="1.095"/>
        <vType accel="1.628" actionStepLength="0.100" carFollowModel="Krauss" color="yellow" decel="3.792" emergencyDecel="9.000" id="vehLVPE73" lcAssertive="1.300" sigma="0.335" speedFactor="0.915" tau="1.090"/>
        <vType accel="1.558" actionStepLength="0.100" carFollowModel="Krauss" color="yellow" decel="2.948" emergencyDecel="9.000" id="vehLVPE74" lcAssertive="1.300" sigma="0.752" speedFactor="1.097" tau="1.004"/>
        <vType accel="2.871" actionStepLength="0.100" carFollowModel="Krauss" color="yellow" decel="3.220" emergencyDecel="9.000" id="vehLVPE75" lcAssertive="1.300" sigma="0.314" speedFactor="0.937" tau="1.216"/>
        <vType accel="1.732" actionStepLength="0.100" carFollowModel="Krauss" color="yellow" decel="2.205" emergencyDecel="9.000" id="vehLVPE76" lcAssertive="1.300" sigma="0.250" speedFactor="0.957" tau="0.695"/>
        <vType accel="2.975" actionStepLength="0.100" carFollowModel="Krauss" color="yellow" decel="4.124" emergencyDecel="9.000" id="vehLVPE77" lcAssertive="1.300" sigma="0.195" speedFactor="1.021" tau="0.603"/>
        <vType accel="2.452" actionStepLength="0.100" carFollowModel="Krauss" color="yellow" decel="3.299" emergencyDecel="9.000" id="vehLVPE78" lcAssertive="1.300" sigma="0.297" speedFactor="0.842" tau="0.525"/>
        <vType accel="2.050" actionStepLength="0.100" carFollowModel="Krauss" color="yellow" decel="3.234" emergencyDecel="9.000" id="vehLVPE79" lcAssertive="1.300" sigma="0.450" speedFactor="1.085" tau="1.050"/>
        <vType accel="1.616" actionStepLength="0.100" carFollowModel="Krauss" color="yellow" decel="3.650" emergencyDecel="9.000" id="vehLVPE80" lcAssertive="1.300" sigma="0.215" speedFactor="1.120" tau="0.806"/>
        <vType accel="3.345" actionStepLength="0.100" carFollowModel="Krauss" color="yellow" decel="4.265" emergencyDecel="9.000" id="vehLVPE81" lcAssertive="1.300" sigma="0.200" speedFactor="0.890" tau="0.776"/>
        <vType accel="2.376" actionStepLength="0.100" carFollowModel="Krauss" color="yellow" decel="2.737" emergencyDecel="9.000" id="vehLVPE82" lcAssertive="1.300" sigma="0.439" speedFactor="1.138" tau="0.559"/>
        <vType accel="2.582" actionStepLength="0.100" carFollowModel="Krauss" color="yellow" decel="4.187" emergencyDecel="9.000" id="vehLVPE83" lcAssertive="1.300" sigma="0.416" speedFactor="1.164" tau="0.686"/>
        <vType accel="1.581" actionStepLength="0.100" carFollowModel="Krauss" color="yellow" decel="4.302" emergencyDecel="9.000" id="vehLVPE84" lcAssertive="1.300" sigma="0.444" speedFactor="1.147" tau="0.632"/>
        <vType accel="1.867" actionStepLength="0.100" carFollowModel="Krauss" color="yellow" decel="3.455" emergencyDecel="9.000" id="vehLVPE85" lcAssertive="1.300" sigma="0.440" speedFactor="1.178" tau="0.881"/>
        <vType accel="2.415" actionStepLength="0.100" carFollowModel="Krauss" color="yellow" decel="2.634" emergencyDecel="9.000" id="vehLVPE86" lcAssertive="1.300" sigma="0.630" speedFactor="1.155" tau="0.674"/>
        <vType accel="1.650" actionStepLength="0.100" carFollowModel="Krauss" color="yellow" decel="3.647" emergencyDecel="9.000" id="vehLVPE87" lcAssertive="1.300" sigma="0.153" speedFactor="1.086" tau="0.998"/>
        <vType accel="2.535" actionStepLength="0.100" carFollowModel="Krauss" color="yellow" decel="2.871" emergencyDecel="9.000" id="vehLVPE88" lcAssertive="1.300" sigma="0.376" speedFactor="1.020" tau="1.177"/>
        <vType accel="2.252" actionStepLength="0.100" carFollowModel="Krauss" color="yellow" decel="2.758" emergencyDecel="9.000" id="vehLVPE89" lcAssertive="1.300" sigma="0.146" speedFactor="1.036" tau="1.106"/>
        <vType accel="1.692" actionStepLength="0.100" carFollowModel="Krauss" color="yellow" decel="3.522" emergencyDecel="9.000" id="vehLVPE90" lcAssertive="1.300" sigma="0.220" speedFactor="0.921" tau="0.780"/>
        <vType accel="2.042" actionStepLength="0.100" carFollowModel="Krauss" color="yellow" decel="2.089" emergencyDecel="9.000" id="vehLVPE91" lcAssertive="1.300" sigma="0.700" speedFactor="0.905" tau="1.084"/>
        <vType accel="3.369" actionStepLength="0.100" carFollowModel="Krauss" color="yellow" decel="2.828" emergencyDecel="9.000" id="vehLVPE92" lcAssertive="1.300" sigma="0.291" speedFactor="1.181" tau="0.816"/>
        <vType accel="2.310" actionStepLength="0.100" carFollowModel="Krauss" color="yellow" decel="2.838" emergencyDecel="9.000" id="vehLVPE93" lcAssertive="1.300" sigma="0.657" speedFactor="1.187" tau="0.927"/>
        <vType accel="1.781" actionStepLength="0.100" carFollowModel="Krauss" color="yellow" decel="4.083" emergencyDecel="9.000" id="vehLVPE94" lcAssertive="1.300" sigma="0.389" speedFactor="1.012" tau="0.883"/>
        <vType accel="1.831" actionStepLength="0.100" carFollowModel="Krauss" color="yellow" decel="2.637" emergencyDecel="9.000" id="vehLVPE95" lcAssertive="1.300" sigma="0.257" speedFactor="1.040" tau="0.960"/>
        <vType accel="3.397" actionStepLength="0.100" carFollowModel="Krauss" color="yellow" decel="4.372" emergencyDecel="9.000" id="vehLVPE96" lcAssertive="1.300" sigma="0.399" speedFactor="1.046" tau="0.838"/>
        <vType accel="1.673" actionStepLength="0.100" carFollowModel="Krauss" color="yellow" decel="3.162" emergencyDecel="9.000" id="vehLVPE97" lcAssertive="1.300" sigma="0.317" speedFactor="0.988" tau="0.622"/>
        <vType accel="2.427" actionStepLength="0.100" carFollowModel="Krauss" color="yellow" decel="3.977" emergencyDecel="9.000" id="vehLVPE98" lcAssertive="1.300" sigma="0.301" speedFactor="1.052" tau="0.598"/>
        <vType accel="1.045" actionStepLength="0.100" carFollowModel="Krauss" color="yellow" decel="2.931" emergencyDecel="9.000" id="vehLVPE99" lcAssertive="1.300" sigma="0.970" speedFactor="1.089" tau="1.212"/>
        <vType accel="1.718" actionStepLength="0.100" carFollowModel="Krauss" color="yellow" decel="3.129" emergencyDecel="9.000" id="vehLVPE100" lcAssertive="1.300" sigma="0.598" speedFactor="1.198" tau="0.969"/>
        <vType accel="2.603" actionStepLength="0.100" carFollowModel="Krauss" color="yellow" decel="4.106" emergencyDecel="9.000" id="vehLVPE101" lcAssertive="1.300" sigma="0.585" speedFactor="0.864" tau="0.578"/>
        <vType accel="1.975" actionStepLength="0.100" carFollowModel="Krauss" color="yellow" decel="4.408" emergencyDecel="9.000" id="vehLVPE102" lcAssertive="1.300" sigma="0.279" speedFactor="0.997" tau="1.247"/>
        <vType accel="1.762" actionStepLength="0.100" carFollowModel="Krauss" color="yellow" decel="2.827" emergencyDecel="9.000" id="vehLVPE103" lcAssertive="1.300" sigma="0.069" speedFactor="0.835" tau="0.674"/>
        <vType accel="1.030" actionStepLength="0.100" carFollowModel="Krauss" color="yellow" decel="3.060" emergencyDecel="9.000" id="vehLVPE104" lcAssertive="1.300" sigma="0.182" speedFactor="0.950" tau="0.700"/>
        <vType accel="2.348" actionStepLength="0.100" carFollowModel="Krauss" color="yellow" decel="4.193" emergencyDecel="9.000" id="vehLVPE105" lcAssertive="1.300" sigma="0.044" speedFactor="0.867" tau="1.047"/>
        <vType accel="2.956" actionStepLength="0.100" carFollowModel="Krauss" color="yellow" decel="4.036" emergencyDecel="9.000" id="vehLVPE106" lcAssertive="1.300" sigma="0.379" speedFactor="1.031" tau="0.751"/>
        <vType accel="2.419" actionStepLength="0.100" carFollowModel="Krauss" color="yellow" decel="3.764" emergencyDecel="9.000" id="vehLVPE107" lcAssertive="1.300" sigma="0.901" speedFactor="0.961" tau="0.687"/>
        <vType accel="2.325" actionStepLength="0.100" carFollowModel="Krauss" color="yellow" decel="3.347" emergencyDecel="9.000" id="vehLVPE108" lcAssertive="1.300" sigma="0.152" speedFactor="1.100" tau="0.619"/>
        <vType accel="1.650" actionStepLength="0.100" carFollowModel="Krauss" color="yellow" decel="3.056" emergencyDecel="9.000" id="vehLVPE109" lcAssertive="1.300" sigma="0.140" speedFactor="1.173" tau="0.572"/>
        <vType accel="2.259" actionStepLength="0.100" carFollowModel="Krauss" color="yellow" decel="3.942" emergencyDecel="9.000" id="vehLVPE110" lcAssertive="1.300" sigma="0.266" speedFactor="0.990" tau="0.722"/>
        <vType accel="2.229" actionStepLength="0.100" carFollowModel="Krauss" color="yellow" decel="2.599" emergencyDecel="9.000" id="vehLVPE111" lcAssertive="1.300" sigma="0.216" speedFactor="0.911" tau="0.814"/>
        <vType accel="1.979" actionStepLength="0.100" carFollowModel="Krauss" color="yellow" decel="2.921" emergencyDecel="9.000" id="vehLVPE112" lcAssertive="1.300" sigma="0.209" speedFactor="0.861" tau="1.068"/>
        <vType accel="3.140" actionStepLength="0.100" carFollowModel="Krauss" color="yellow" decel="4.133" emergencyDecel="9.000" id="vehLVPE113" lcAssertive="1.300" sigma="0.248" speedFactor="0.933" tau="0.871"/>
        <vType accel="2.828" actionStepLength="0.100" carFollowModel="Krauss" color="yellow" decel="3.368" emergencyDecel="9.000" id="vehLVPE114" lcAssertive="1.300" sigma="0.692" speedFactor="1.146" tau="1.038"/>
        <vType accel="2.721" actionStepLength="0.100" carFollowModel="Krauss" color="yellow" decel="4.337" emergencyDecel="9.000" id="vehLVPE115" lcAssertive="1.300" sigma="0.088" speedFactor="1.091" tau="0.770"/>
        <vType accel="3.186" actionStepLength="0.100" carFollowModel="Krauss" color="yellow" decel="3.288" emergencyDecel="9.000" id="vehLVPE116" lcAssertive="1.300" sigma="0.238" speedFactor="1.048" tau="0.619"/>
        <vType accel="1.341" actionStepLength="0.100" carFollowModel="Krauss" color="yellow" decel="3.720" emergencyDecel="9.000" id="vehLVPE117" lcAssertive="1.300" sigma="0.651" speedFactor="0.931" tau="0.523"/>
        <vType accel="2.306" actionStepLength="0.100" carFollowModel="Krauss" color="yellow" decel="3.854" emergencyDecel="9.000" id="vehLVPE118" lcAssertive="1.300" sigma="0.177" speedFactor="0.910" tau="0.786"/>
        <vType accel="2.441" actionStepLength="0.100" carFollowModel="Krauss" color="yellow" decel="4.001" emergencyDecel="9.000" id="vehLVPE119" lcAssertive="1.300" sigma="0.430" speedFactor="1.111" tau="0.523"/>
        <vType accel="3.055" actionStepLength="0.100" carFollowModel="Krauss" color="yellow" decel="3.130" emergencyDecel="9.000" id="vehLVPE120" lcAssertive="1.300" sigma="0.315" speedFactor="1.016" tau="1.113"/>
        <vType accel="2.389" actionStepLength="0.100" carFollowModel="Krauss" color="yellow" decel="3.562" emergencyDecel="9.000" id="vehLVPE121" lcAssertive="1.300" sigma="0.371" speedFactor="0.834" tau="1.018"/>
        <vType accel="1.272" actionStepLength="0.100" carFollowModel="Krauss" color="yellow" decel="2.494" emergencyDecel="9.000" id="vehLVPE122" lcAssertive="1.300" sigma="0.338" speedFactor="1.188" tau="1.317"/>
        <vType accel="3.392" actionStepLength="0.100" carFollowModel="Krauss" color="yellow" decel="3.833" emergencyDecel="9.000" id="vehLVPE123" lcAssertive="1.300" sigma="0.098" speedFactor="0.849" tau="0.651"/>
        <vType accel="3.195" actionStepLength="0.100" carFollowModel="Krauss" color="yellow" decel="3.682" emergencyDecel="9.000" id="vehLVPE124" lcAssertive="1.300" sigma="0.562" speedFactor="1.191" tau="0.834"/>
        <vType accel="1.880" actionStepLength="0.100" carFollowModel="Krauss" color="yellow" decel="3.498" emergencyDecel="9.000" id="vehLVPE125" lcAssertive="1.300" sigma="0.448" speedFactor="1.039" tau="0.671"/>
        <vType accel="2.824" actionStepLength="0.100" carFollowModel="Krauss" color="yellow" decel="3.421" emergencyDecel="9.000" id="vehLVPE126" lcAssertive="1.300" sigma="0.620" speedFactor="1.059" tau="0.608"/>
        <vType accel="2.879" actionStepLength="0.100" carFollowModel="Krauss" color="yellow" decel="3.592" emergencyDecel="9.000" id="vehLVPE127" lcAssertive="1.300" sigma="0.124" speedFactor="0.865" tau="0.558"/>
        <vType accel="2.592" actionStepLength="0.100" carFollowModel="Krauss" color="yellow" decel="2.065" emergencyDecel="9.000" id="vehLVPE128" lcAssertive="1.300" sigma="0.418" speedFactor="0.960" tau="0.575"/>
        <vType accel="1.985" actionStepLength="0.100" carFollowModel="Krauss" color="yellow" decel="4.049" emergencyDecel="9.000" id="vehLVPE129" lcAssertive="1.300" sigma="0.496" speedFactor="1.141" tau="0.634"/>
        <vType accel="1.654" actionStepLength="0.100" carFollowModel="Krauss" color="yellow" decel="3.053" emergencyDecel="9.000" id="vehLVPE130" lcAssertive="1.300" sigma="0.376" speedFactor="0.945" tau="0.686"/>
        <vType accel="1.067" actionStepLength="0.100" carFollowModel="Krauss" color="yellow" decel="2.991" emergencyDecel="9.000" id="vehLVPE131" lcAssertive="1.300" sigma="0.050" speedFactor="1.182" tau="1.029"/>
        <vType accel="1.668" actionStepLength="0.100" carFollowModel="Krauss" color="yellow" decel="2.907" emergencyDecel="9.000" id="vehLVPE132" lcAssertive="1.300" sigma="0.656" speedFactor="0.809" tau="0.884"/>
        <vType accel="1.402" actionStepLength="0.100" carFollowModel="Krauss" color="yellow" decel="3.593" emergencyDecel="9.000" id="vehLVPE133" lcAssertive="1.300" sigma="0.260" speedFactor="1.012" tau="0.736"/>
        <vType accel="1.194" actionStepLength="0.100" carFollowModel="Krauss" color="yellow" decel="3.867" emergencyDecel="9.000" id="vehLVPE134" lcAssertive="1.300" sigma="0.325" speedFactor="0.827" tau="0.603"/>
        <vType accel="1.357" actionStepLength="0.100" carFollowModel="Krauss" color="yellow" decel="2.584" emergencyDecel="9.000" id="vehLVPE135" lcAssertive="1.300" sigma="0.637" speedFactor="0.896" tau="1.245"/>
        <vType accel="3.254" actionStepLength="0.100" carFollowModel="Krauss" color="yellow" decel="2.520" emergencyDecel="9.000" id="vehLVPE136" lcAssertive="1.300" sigma="0.517" speedFactor="0.952" tau="1.231"/>
        <vType accel="1.875" actionStepLength="0.100" carFollowModel="Krauss" color="yellow" decel="3.039" emergencyDecel="9.000" id="vehLVPE137" lcAssertive="1.300" sigma="0.851" speedFactor="1.006" tau="0.693"/>
        <vType accel="2.383" actionStepLength="0.100" carFollowModel="Krauss" color="yellow" decel="2.984" emergencyDecel="9.000" id="vehLVPE138" lcAssertive="1.300" sigma="0.639" speedFactor="0.919" tau="1.495"/>