<?xml version="1.0" encoding="UTF-8"?>
<configuration xmlns:xsi="http://www.w3.org/2001/XMLSchema-instance" xsi:noNamespaceSchemaLocation="http://sumo.dlr.de/xsd/sumoConfiguration.xsd">
    <net-file value="net.net.xml"/>
    <route-files value="routes.rou.xml"/>
    <traci_server>
        <remote-port>5500</remote-port>
    </traci_server>
    <output>
        <!-- tripinfo-output value="tripinfo_output.xml" / -->
    </output>
</configuration>
