<?xml version="1.0" encoding="UTF-8"?>

<configuration xmlns:xsi="http://www.w3.org/2001/XMLSchema-instance" xsi:noNamespaceSchemaLocation="http://sumo.sf.net/xsd/iCSConfiguration.xsd">

    <configuration>
        <configuration-file value="" synonymes="c configuration" type="FILE" help="Loads the named config on startup"/>
        <save-configuration value="" synonymes="save-config" type="FILE" help="Saves current configuration into FILE"/>
        <save-template value="" type="FILE" help="Saves a configuration template (empty) into FILE"/>
        <save-schema value="" type="FILE" help="Saves the configuration schema into FILE"/>
        <save-commented value="false" synonymes="save-template.commented" type="BOOL" help="Adds comments to saved template, configuration, or schema"/>
    </configuration>

    <scenario>
        <begin value="0" synonymes="b" type="INT" help="Defines the begin time of the scenario simulation"/>
        <end value="" synonymes="e" type="INT" help="Defines the end time of the scenario simulation"/>
        <resolution value="1000" type="INT" help="Time resolution of every simulation step (ms)"/>
        <penetration-rate value="" synonymes="r" type="INT" help="Defines the percentage of vehicles equiped with a RAT"/>
        <facilities-config-file value="" synonymes="f" type="FILE" help="The entry point file for the facilities block configuration."/>
        <message-reception-window value="" synonymes="m" type="INT" help="Defines the time the iCS will keep schedule messages in the internal tables. That time window past, they are erased."/>
        <interactive value="false" type="BOOL" help="Whether iCS shall be run in interactive mode"/>
    </scenario>

    <trafficsim>
        <traffic-executable value="" type="STR" help="Defines the traffic simulation executable"/>
        <traffic-file value="" type="FILE" help="Defines the traffic simulation configuration"/>
        <traffic-host value="localhost" type="STR" help="Defines the host the traffic simulation shall run on"/>
        <traffic-port value="" type="INT" help="Defines the port the traffic simulation shall use"/>
    </trafficsim>

    <communicationsim>
        <communication-executable value="" type="STR" help="Defines the communication simulation executable"/>
        <communication-host value="localhost" type="STR" help="Defines the host the communication simulation shall run on"/>
        <communication-port value="" type="INT" help="Defines the port the communication simulation shall use"/>
        <communication-general-params-file value="" type="STR" help="Defines the general ns-3 script configuration."/>
        <communication-config-technologies-file value="" type="STR" help="Defines the communication technologies configuration in ns-3"/>
    </communicationsim>

    <applications>
        <app-config-file value="" synonymes="a apps" type="FILE" help="Defines the Application configurations"/>
    </applications>

    <logs>
        <ics-log-path value="" type="FILE" help="Defines the place where the iCS log file will be stored"/>
        <ics-log-time-size value="" type="STR" help="Defines the time step amount for each log file."/>
        <ics-log-level value="" type="STR" help="Defines the output level of the log [ERROR, WARNING, INFO]"/>
        <ics-log-begin value="" type="INT" help="Defines the time for the start of the ics-log in [ms]."/>
        <ics-log-end value="" type="INT" help="Defines the time for the end of the ics-log in [ms]."/>
        <ics-log-omit-systime value="" type="BOOL" help="Whether system time shall be omitted in logging output"/>
        <ns3-log-path value="" type="FILE" help="Defines the place where the ns-3 log file will be stored"/>
    </logs>

    <report>
        <verbose value="false" synonymes="v" type="BOOL" help="Switches to verbose output"/>
        <print-options value="false" synonymes="p" type="BOOL" help="Prints option values before processing"/>
        <help value="false" synonymes="?" type="BOOL" help="Prints this screen"/>
        <version value="false" synonymes="V" type="BOOL" help="Prints the current version"/>
        <xml-validation value="false" synonymes="X" type="BOOL" help="Enable schema validation of XML inputs"/>
        <no-warnings value="false" synonymes="W suppress-warnings" type="BOOL" help="Disables output of warnings"/>
        <log value="" synonymes="l log-file" type="FILE" help="Writes all messages to FILE (implies verbose)"/>
        <message-log value="" type="FILE" help="Writes all non-error messages to FILE (implies verbose)"/>
        <error-log value="" type="FILE" help="Writes all warnings and errors to FILE"/>
    </report>

    <random_number>
        <random value="false" synonymes="abs-rand" type="BOOL" help="Initialises the random number generator with the current system time"/>
        <seed value="23423" synonymes="srand" type="INT" help="Initialises the random number generator with the given value"/>
    </random_number>

</configuration>
