<?xml version="1.0" encoding="UTF-8"?>
<routes xmlns:xsi="http://www.w3.org/2001/XMLSchema-instance" xsi:noNamespaceSchemaLocation="http://sumo.dlr.de/xsd/routes_file.xsd">
    <!-- one  hour vehicle flows -->
    <flow id="LV" type="{LVtype}" begin="0" end="3600" departLane="random" departSpeed="max" departPos="last" probability="{LVprob}" from="entry" to="e0"  >
        <param key="has.ssm.device" value="true" />
        <param key="device.ssm.measures" value="TTC DRAC PET" />
        <param key="device.ssm.thresholds" value="0 0 10" />
        <param key="device.ssm.frequency" value="10" />
        <param key="device.ssm.range" value="20" />
        <param key="device.ssm.trajectories" value="false" />
        <param key="device.ssm.file" value="{ssmOutFile}" />
    </flow>
    <flow id="CVToC" type="{CVToCtype}" begin="0" end="3600" departLane="random" departSpeed="max" departPos="last" probability="{CVToCprob}" from="entry" to="e0"  >
        <param key="has.ssm.device" value="true" />
        <param key="device.ssm.measures" value="TTC DRAC PET" />
        <param key="device.ssm.thresholds" value="0 0 10" />
        <param key="device.ssm.frequency" value="10" />
        <param key="device.ssm.range" value="20" />
        <param key="device.ssm.trajectories" value="false" />
        <param key="device.ssm.file" value="{ssmOutFile}" />
    </flow>
    <flow id="CAVToC" type="{CAVToCtype}" begin="0" end="3600" departLane="random" departSpeed="max" departPos="last" probability="{CAVToCprob}" from="entry" to="e0"  >
        <param key="has.ssm.device" value="true" />
        <param key="device.ssm.measures" value="TTC DRAC PET" />
        <param key="device.ssm.thresholds" value="0 0 10" />
        <param key="device.ssm.frequency" value="10" />
        <param key="device.ssm.range" value="20" />
        <param key="device.ssm.trajectories" value="false" />
        <param key="device.ssm.file" value="{ssmOutFile}" />
    </flow>
</routes>
