<?xml version="1.0" encoding="UTF-8"?>
<configuration xmlns:xsi="http://www.w3.org/2001/XMLSchema-instance" xsi:noNamespaceSchemaLocation="http://sumo.dlr.de/xsd/sumoConfiguration.xsd">
    <net-file value="../../../UC5_1.net.xml" />
    <!-- additional-files value="{{addFiles}}, ../../../shapes.add.xml" /-->
    <!-- route-files value="routes.rou.xml" /-->
    <step-length value="0.1" />
    <!-- lateral-resolution value="0.8" / -->
    <lanechange.duration value="2.5" />
    <ignore-route-errors value="true" />
    <step-method.ballistic value="true" />
    <no-step-log value="true" />
</configuration>
