<?xml version="1.0" encoding="UTF-8"?>

<!-- generated on Di 17 Jul 2018 23:46:44 CEST by Eclipse SUMO netedit Version 2901019
<configuration xmlns:xsi="http://www.w3.org/2001/XMLSchema-instance" xsi:noNamespaceSchemaLocation="http://sumo.dlr.de/xsd/netconvertConfiguration.xsd">

    <input>
        <sumo-net-file value="UC5_1.net.xml"/>
    </input>

    <output>
        <output-file value="UC5_1.net.xml"/>
    </output>

    <processing>
        <no-internal-links value="true"/>
        <no-turnarounds value="true"/>
        <offset.disable-normalization value="true"/>
        <lefthand value="false"/>
        <junctions.corner-detail value="0"/>
        <rectangular-lane-cut value="false"/>
        <walkingareas value="false"/>
    </processing>

</configuration>
-->

<net version="0.27" xmlns:xsi="http://www.w3.org/2001/XMLSchema-instance" xsi:noNamespaceSchemaLocation="http://sumo.dlr.de/xsd/net_file.xsd">

    <location netOffset="0.00,0.00" convBoundary="0.00,0.00,5000.00,0.00" origBoundary="-10000000000.00,-10000000000.00,10000000000.00,10000000000.00" projParameter="!"/>

    <edge id="e0" from="gneJ0" to="n1" priority="3">
        <lane id="e0_0" index="0" disallow="tram rail_urban rail rail_electric pedestrian ship" speed="36.11" length="4800.00" shape="200.00,-4.80 5000.00,-4.80"/>
        <lane id="e0_1" index="1" disallow="tram rail_urban rail rail_electric pedestrian ship" speed="36.11" length="4800.00" shape="200.00,-1.60 5000.00,-1.60"/>
    </edge>
    <edge id="entry" from="n0" to="gneJ0" priority="3">
        <lane id="entry_0" index="0" disallow="tram rail_urban rail rail_electric pedestrian ship" speed="36.11" length="200.00" shape="0.00,-4.80 200.00,-4.80"/>
        <lane id="entry_1" index="1" disallow="tram rail_urban rail rail_electric pedestrian ship" speed="36.11" length="200.00" shape="0.00,-1.60 200.00,-1.60"/>
    </edge>

    <junction id="gneJ0" type="priority" x="200.00" y="0.00" incLanes="entry_0 entry_1" intLanes="" shape="200.00,0.00 200.00,-6.40 200.00,0.00">
        <request index="0" response="00" foes="00"/>
        <request index="1" response="00" foes="00"/>
    </junction>
    <junction id="n0" type="dead_end" x="0.00" y="0.00" incLanes="" intLanes="" shape="0.00,0.00 0.00,-6.40"/>
    <junction id="n1" type="dead_end" x="5000.00" y="0.00" incLanes="e0_0 e0_1" intLanes="" shape="5000.00,-6.40 5000.00,0.00"/>

    <connection from="entry" to="e0" fromLane="0" toLane="0" dir="s" state="M"/>
    <connection from="entry" to="e0" fromLane="1" toLane="1" dir="s" state="M"/>

</net>
