<additional xmlns:xsi="http://www.w3.org/2001/XMLSchema-instance" xsi:noNamespaceSchemaLocation="http://sumo.dlr.de/xsd/additional_file.xsd">
    <vTypeDistribution id="vehCVToCOE">
        <vType accel="1.362" actionStepLength="0.100" carFollowModel="ACC" color="blue" decel="2.024" emergencyDecel="9.000" id="vehCVToCOE0" lcAssertive="0.868" tau="1.225">
            <param key="device.toc.automatedType" value="vehCVToCOE"/>
            <param key="device.toc.manualType" value="vehLVOE"/>
            <param key="has.toc.device" value="true"/>
            <param key="device.toc.mrmDecel" value="3.000"/>
            <param key="device.toc.recoveryRate" value="0.150"/>
            <param key="device.toc.initialAwareness" value="0.870"/>
            <param key="device.toc.useColorScheme" value="true"/>
            <param key="device.toc.responseTime" value="0.000"/>
        </vType>
        <vType accel="1.868" actionStepLength="0.100" carFollowModel="ACC" color="blue" decel="2.343" emergencyDecel="9.000" id="vehCVToCOE1" lcAssertive="0.805" tau="1.153">
            <param key="device.toc.automatedType" value="vehCVToCOE"/>
            <param key="device.toc.manualType" value="vehLVOE"/>
            <param key="has.toc.device" value="true"/>
            <param key="device.toc.mrmDecel" value="3.000"/>
            <param key="device.toc.recoveryRate" value="0.348"/>
            <param key="device.toc.initialAwareness" value="0.418"/>
            <param key="device.toc.useColorScheme" value="true"/>
            <param key="device.toc.responseTime" value="0.000"/>
        </vType>
        <vType accel="1.810" actionStepLength="0.100" carFollowModel="ACC" color="blue" decel="2.568" emergencyDecel="9.000" id="vehCVToCOE2" lcAssertive="0.944" tau="1.237">
            <param key="device.toc.automatedType" value="vehCVToCOE"/>
            <param key="device.toc.manualType" value="vehLVOE"/>
            <param key="has.toc.device" value="true"/>
            <param key="device.toc.mrmDecel" value="3.000"/>
            <param key="device.toc.recoveryRate" value="0.172"/>
            <param key="device.toc.initialAwareness" value="0.983"/>
            <param key="device.toc.useColorScheme" value="true"/>
            <param key="device.toc.responseTime" value="0.000"/>
        </vType>
        <vType accel="1.279" actionStepLength="0.100" carFollowModel="ACC" color="blue" decel="3.867" emergencyDecel="9.000" id="vehCVToCOE3" lcAssertive="0.967" tau="1.146">
            <param key="device.toc.automatedType" value="vehCVToCOE"/>
            <param key="device.toc.manualType" value="vehLVOE"/>
            <param key="has.toc.device" value="true"/>
            <param key="device.toc.mrmDecel" value="3.000"/>
            <param key="device.toc.recoveryRate" value="0.214"/>
            <param key="device.toc.initialAwareness" value="0.337"/>
            <param key="device.toc.useColorScheme" value="true"/>
            <param key="device.toc.responseTime" value="0.000"/>
        </vType>
        <vType accel="1.721" actionStepLength="0.100" carFollowModel="ACC" color="blue" decel="3.978" emergencyDecel="9.000" id="vehCVToCOE4" lcAssertive="0.952" tau="1.288">
            <param key="device.toc.automatedType" value="vehCVToCOE"/>
            <param key="device.toc.manualType" value="vehLVOE"/>
            <param key="has.toc.device" value="true"/>
            <param key="device.toc.mrmDecel" value="3.000"/>
            <param key="device.toc.recoveryRate" value="0.200"/>
            <param key="device.toc.initialAwareness" value="0.595"/>
            <param key="device.toc.useColorScheme" value="true"/>
            <param key="device.toc.responseTime" value="0.000"/>
        </vType>
        <vType accel="1.750" actionStepLength="0.100" carFollowModel="ACC" color="blue" decel="2.255" emergencyDecel="9.000" id="vehCVToCOE5" lcAssertive="0.816" tau="1.191">
            <param key="device.toc.automatedType" value="vehCVToCOE"/>
            <param key="device.toc.manualType" value="vehLVOE"/>
            <param key="has.toc.device" value="true"/>
            <param key="device.toc.mrmDecel" value="3.000"/>
            <param key="device.toc.recoveryRate" value="0.183"/>
            <param key="device.toc.initialAwareness" value="0.634"/>
            <param key="device.toc.useColorScheme" value="true"/>
            <param key="device.toc.responseTime" value="0.000"/>
        </vType>
        <vType accel="0.935" actionStepLength="0.100" carFollowModel="ACC" color="blue" decel="2.782" emergencyDecel="9.000" id="vehCVToCOE6" lcAssertive="0.875" tau="1.133">
            <param key="device.toc.automatedType" value="vehCVToCOE"/>
            <param key="device.toc.manualType" value="vehLVOE"/>
            <param key="has.toc.device" value="true"/>
            <param key="device.toc.mrmDecel" value="3.000"/>
            <param key="device.toc.recoveryRate" value="0.141"/>
            <param key="device.toc.initialAwareness" value="0.895"/>
            <param key="device.toc.useColorScheme" value="true"/>
            <param key="device.toc.responseTime" value="0.000"/>
        </vType>
        <vType accel="1.314" actionStepLength="0.100" carFollowModel="ACC" color="blue" decel="2.296" emergencyDecel="9.000" id="vehCVToCOE7" lcAssertive="0.972" tau="1.175">
            <param key="device.toc.automatedType" value="vehCVToCOE"/>
            <param key="device.toc.manualType" value="vehLVOE"/>
            <param key="has.toc.device" value="true"/>
            <param key="device.toc.mrmDecel" value="3.000"/>
            <param key="device.toc.recoveryRate" value="0.283"/>
            <param key="device.toc.initialAwareness" value="0.727"/>
            <param key="device.toc.useColorScheme" value="true"/>
            <param key="device.toc.responseTime" value="0.000"/>
        </vType>
        <vType accel="1.366" actionStepLength="0.100" carFollowModel="ACC" color="blue" decel="3.340" emergencyDecel="9.000" id="vehCVToCOE8" lcAssertive="0.929" tau="1.197">
            <param key="device.toc.automatedType" value="vehCVToCOE"/>
            <param key="device.toc.manualType" value="vehLVOE"/>
            <param key="has.toc.device" value="true"/>
            <param key="device.toc.mrmDecel" value="3.000"/>
            <param key="device.toc.recoveryRate" value="0.182"/>
            <param key="device.toc.initialAwareness" value="0.447"/>
            <param key="device.toc.useColorScheme" value="true"/>
            <param key="device.toc.responseTime" value="0.000"/>
        </vType>
        <vType accel="0.984" actionStepLength="0.100" carFollowModel="ACC" color="blue" decel="3.888" emergencyDecel="9.000" id="vehCVToCOE9" lcAssertive="0.867" tau="1.203">
            <param key="device.toc.automatedType" value="vehCVToCOE"/>
            <param key="device.toc.manualType" value="vehLVOE"/>
            <param key="has.toc.device" value="true"/>
            <param key="device.toc.mrmDecel" value="3.000"/>
            <param key="device.toc.recoveryRate" value="0.112"/>
            <param key="device.toc.initialAwareness" value="0.828"/>
            <param key="device.toc.useColorScheme" value="true"/>
            <param key="device.toc.responseTime" value="0.000"/>
        </vType>
        <vType accel="0.758" actionStepLength="0.100" carFollowModel="ACC" color="blue" decel="3.421" emergencyDecel="9.000" id="vehCVToCOE10" lcAssertive="0.807" tau="1.260">
            <param key="device.toc.automatedType" value="vehCVToCOE"/>
            <param key="device.toc.manualType" value="vehLVOE"/>
            <param key="has.toc.device" value="true"/>
            <param key="device.toc.mrmDecel" value="3.000"/>
            <param key="device.toc.recoveryRate" value="0.021"/>
            <param key="device.toc.initialAwareness" value="0.319"/>
            <param key="device.toc.useColorScheme" value="true"/>
            <param key="device.toc.responseTime" value="0.000"/>
        </vType>
        <vType accel="1.969" actionStepLength="0.100" carFollowModel="ACC" color="blue" decel="3.313" emergencyDecel="9.000" id="vehCVToCOE11" lcAssertive="0.882" tau="1.173">
            <param key="device.toc.automatedType" value="vehCVToCOE"/>
            <param key="device.toc.manualType" value="vehLVOE"/>
            <param key="has.toc.device" value="true"/>
            <param key="device.toc.mrmDecel" value="3.000"/>
            <param key="device.toc.recoveryRate" value="0.393"/>
            <param key="device.toc.initialAwareness" value="0.638"/>
            <param key="device.toc.useColorScheme" value="true"/>
            <param key="device.toc.responseTime" value="0.000"/>
        </vType>
        <vType accel="1.375" actionStepLength="0.100" carFollowModel="ACC" color="blue" decel="2.308" emergencyDecel="9.000" id="vehCVToCOE12" lcAssertive="0.852" tau="1.232">
            <param key="device.toc.automatedType" value="vehCVToCOE"/>
            <param key="device.toc.manualType" value="vehLVOE"/>
            <param key="has.toc.device" value="true"/>
            <param key="device.toc.mrmDecel" value="3.000"/>
            <param key="device.toc.recoveryRate" value="0.292"/>
            <param key="device.toc.initialAwareness" value="0.960"/>
            <param key="device.toc.useColorScheme" value="true"/>
            <param key="device.toc.responseTime" value="0.000"/>
        </vType>
        <vType accel="1.402" actionStepLength="0.100" carFollowModel="ACC" color="blue" decel="3.656" emergencyDecel="9.000" id="vehCVToCOE13" lcAssertive="0.957" tau="1.158">
            <param key="device.toc.automatedType" value="vehCVToCOE"/>
            <param key="device.toc.manualType" value="vehLVOE"/>
            <param key="has.toc.device" value="true"/>
            <param key="device.toc.mrmDecel" value="3.000"/>
            <param key="device.toc.recoveryRate" value="0.273"/>
            <param key="device.toc.initialAwareness" value="0.821"/>
            <param key="device.toc.useColorScheme" value="true"/>
            <param key="device.toc.responseTime" value="0.000"/>
        </vType>
        <vType accel="1.735" actionStepLength="0.100" carFollowModel="ACC" color="blue" decel="2.750" emergencyDecel="9.000" id="vehCVToCOE14" lcAssertive="0.954" tau="1.237">
            <param key="device.toc.automatedType" value="vehCVToCOE"/>
            <param key="device.toc.manualType" value="vehLVOE"/>
            <param key="has.toc.device" value="true"/>
            <param key="device.toc.mrmDecel" value="3.000"/>
            <param key="device.toc.recoveryRate" value="0.153"/>
            <param key="device.toc.initialAwareness" value="0.826"/>
            <param key="device.toc.useColorScheme" value="true"/>
            <param key="device.toc.responseTime" value="0.000"/>
        </vType>
        <vType accel="1.214" actionStepLength="0.100" carFollowModel="ACC" color="blue" decel="3.496" emergencyDecel="9.000" id="vehCVToCOE15" lcAssertive="0.853" tau="1.145">
            <param key="device.toc.automatedType" value="vehCVToCOE"/>
            <param key="device.toc.manualType" value="vehLVOE"/>
            <param key="has.toc.device" value="true"/>
            <param key="device.toc.mrmDecel" value="3.000"/>
            <param key="device.toc.recoveryRate" value="0.176"/>
            <param key="device.toc.initialAwareness" value="0.662"/>
            <param key="device.toc.useColorScheme" value="true"/>
            <param key="device.toc.responseTime" value="0.000"/>
        </vType>
        <vType accel="1.843" actionStepLength="0.100" carFollowModel="ACC" color="blue" decel="3.382" emergencyDecel="9.000" id="vehCVToCOE16" lcAssertive="0.860" tau="1.261">
            <param key="device.toc.automatedType" value="vehCVToCOE"/>
            <param key="device.toc.manualType" value="vehLVOE"/>
            <param key="has.toc.device" value="true"/>
            <param key="device.toc.mrmDecel" value="3.000"/>
            <param key="device.toc.recoveryRate" value="0.053"/>
            <param key="device.toc.initialAwareness" value="0.450"/>
            <param key="device.toc.useColorScheme" value="true"/>
            <param key="device.toc.responseTime" value="0.000"/>
        </vType>
        <vType accel="1.532" actionStepLength="0.100" carFollowModel="ACC" color="blue" decel="2.624" emergencyDecel="9.000" id="vehCVToCOE17" lcAssertive="0.894" tau="1.199">
            <param key="device.toc.automatedType" value="vehCVToCOE"/>
            <param key="device.toc.manualType" value="vehLVOE"/>
            <param key="has.toc.device" value="true"/>
            <param key="device.toc.mrmDecel" value="3.000"/>
            <param key="device.toc.recoveryRate" value="0.387"/>
            <param key="device.toc.initialAwareness" value="0.928"/>
            <param key="device.toc.useColorScheme" value="true"/>
            <param key="device.toc.responseTime" value="0.000"/>
        </vType>
        <vType accel="0.924" actionStepLength="0.100" carFollowModel="ACC" color="blue" decel="3.080" emergencyDecel="9.000" id="vehCVToCOE18" lcAssertive="0.938" tau="1.295">
            <param key="device.toc.automatedType" value="vehCVToCOE"/>
            <param key="device.toc.manualType" value="vehLVOE"/>
            <param key="has.toc.device" value="true"/>
            <param key="device.toc.mrmDecel" value="3.000"/>
            <param key="device.toc.recoveryRate" value="0.230"/>
            <param key="device.toc.initialAwareness" value="0.248"/>
            <param key="device.toc.useColorScheme" value="true"/>
            <param key="device.toc.responseTime" value="0.000"/>
        </vType>
        <vType accel="1.974" actionStepLength="0.100" carFollowModel="ACC" color="blue" decel="2.450" emergencyDecel="9.000" id="vehCVToCOE19" lcAssertive="0.839" tau="1.165">
            <param key="device.toc.automatedType" value="vehCVToCOE"/>
            <param key="device.toc.manualType" value="vehLVOE"/>
            <param key="has.toc.device" value="true"/>
            <param key="device.toc.mrmDecel" value="3.000"/>
            <param key="device.toc.recoveryRate" value="0.182"/>
            <param key="device.toc.initialAwareness" value="0.760"/>
            <param key="device.toc.useColorScheme" value="true"/>
            <param key="device.toc.responseTime" value="0.000"/>
        </vType>
        <vType accel="1.303" actionStepLength="0.100" carFollowModel="ACC" color="blue" decel="2.936" emergencyDecel="9.000" id="vehCVToCOE20" lcAssertive="0.858" tau="1.189">
            <param key="device.toc.automatedType" value="vehCVToCOE"/>
            <param key="device.toc.manualType" value="vehLVOE"/>
            <param key="has.toc.device" value="true"/>
            <param key="device.toc.mrmDecel" value="3.000"/>
            <param key="device.toc.recoveryRate" value="0.112"/>
            <param key="device.toc.initialAwareness" value="0.765"/>
            <param key="device.toc.useColorScheme" value="true"/>
            <param key="device.toc.responseTime" value="0.000"/>
        </vType>
        <vType accel="1.037" actionStepLength="0.100" carFollowModel="ACC" color="blue" decel="3.140" emergencyDecel="9.000" id="vehCVToCOE21" lcAssertive="0.948" tau="1.127">
            <param key="device.toc.automatedType" value="vehCVToCOE"/>
            <param key="device.toc.manualType" value="vehLVOE"/>
            <param key="has.toc.device" value="true"/>
            <param key="device.toc.mrmDecel" value="3.000"/>
            <param key="device.toc.recoveryRate" value="0.272"/>
            <param key="device.toc.initialAwareness" value="0.265"/>
            <param key="device.toc.useColorScheme" value="true"/>
            <param key="device.toc.responseTime" value="0.000"/>
        </vType>
        <vType accel="1.899" actionStepLength="0.100" carFollowModel="ACC" color="blue" decel="3.877" emergencyDecel="9.000" id="vehCVToCOE22" lcAssertive="0.880" tau="1.100">
            <param key="device.toc.automatedType" value="vehCVToCOE"/>
            <param key="device.toc.manualType" value="vehLVOE"/>
            <param key="has.toc.device" value="true"/>
            <param key="device.toc.mrmDecel" value="3.000"/>
            <param key="device.toc.recoveryRate" value="0.330"/>
            <param key="device.toc.initialAwareness" value="0.923"/>
            <param key="device.toc.useColorScheme" value="true"/>
            <param key="device.toc.responseTime" value="0.000"/>
        </vType>
        <vType accel="1.627" actionStepLength="0.100" carFollowModel="ACC" color="blue" decel="2.589" emergencyDecel="9.000" id="vehCVToCOE23" lcAssertive="0.884" tau="1.202">
            <param key="device.toc.automatedType" value="vehCVToCOE"/>
            <param key="device.toc.manualType" value="vehLVOE"/>
            <param key="has.toc.device" value="true"/>
            <param key="device.toc.mrmDecel" value="3.000"/>
            <param key="device.toc.recoveryRate" value="0.336"/>
            <param key="device.toc.initialAwareness" value="0.960"/>
            <param key="device.toc.useColorScheme" value="true"/>
            <param key="device.toc.responseTime" value="0.000"/>
        </vType>
        <vType accel="1.977" actionStepLength="0.100" carFollowModel="ACC" color="blue" decel="2.919" emergencyDecel="9.000" id="vehCVToCOE24" lcAssertive="0.892" tau="1.179">
            <param key="device.toc.automatedType" value="vehCVToCOE"/>
            <param key="device.toc.manualType" value="vehLVOE"/>
            <param key="has.toc.device" value="true"/>
            <param key="device.toc.mrmDecel" value="3.000"/>
            <param key="device.toc.recoveryRate" value="0.274"/>
            <param key="device.toc.initialAwareness" value="0.977"/>
            <param key="device.toc.useColorScheme" value="true"/>
            <param key="device.toc.responseTime" value="0.000"/>
        </vType>
        <vType accel="1.766" actionStepLength="0.100" carFollowModel="ACC" color="blue" decel="3.092" emergencyDecel="9.000" id="vehCVToCOE25" lcAssertive="0.948" tau="1.110">
            <param key="device.toc.automatedType" value="vehCVToCOE"/>
            <param key="device.toc.manualType" value="vehLVOE"/>
            <param key="has.toc.device" value="true"/>
            <param key="device.toc.mrmDecel" value="3.000"/>
            <param key="device.toc.recoveryRate" value="0.247"/>
            <param key="device.toc.initialAwareness" value="0.889"/>
            <param key="device.toc.useColorScheme" value="true"/>
            <param key="device.toc.responseTime" value="0.000"/>
        </vType>
        <vType accel="1.759" actionStepLength="0.100" carFollowModel="ACC" color="blue" decel="2.311" emergencyDecel="9.000" id="vehCVToCOE26" lcAssertive="0.859" tau="1.152">
            <param key="device.toc.automatedType" value="vehCVToCOE"/>
            <param key="device.toc.manualType" value="vehLVOE"/>
            <param key="has.toc.device" value="true"/>
            <param key="device.toc.mrmDecel" value="3.000"/>
            <param key="device.toc.recoveryRate" value="0.140"/>
            <param key="device.toc.initialAwareness" value="0.670"/>
            <param key="device.toc.useColorScheme" value="true"/>
            <param key="device.toc.responseTime" value="0.000"/>
        </vType>
        <vType accel="1.888" actionStepLength="0.100" carFollowModel="ACC" color="blue" decel="2.906" emergencyDecel="9.000" id="vehCVToCOE27" lcAssertive="0.915" tau="1.132">
            <param key="device.toc.automatedType" value="vehCVToCOE"/>
            <param key="device.toc.manualType" value="vehLVOE"/>
            <param key="has.toc.device" value="true"/>
            <param key="device.toc.mrmDecel" value="3.000"/>
            <param key="device.toc.recoveryRate" value="0.208"/>
            <param key="device.toc.initialAwareness" value="0.977"/>
            <param key="device.toc.useColorScheme" value="true"/>
            <param key="device.toc.responseTime" value="0.000"/>
        </vType>
        <vType accel="0.797" actionStepLength="0.100" carFollowModel="ACC" color="blue" decel="3.532" emergencyDecel="9.000" id="vehCVToCOE28" lcAssertive="0.933" tau="1.264">
            <param key="device.toc.automatedType" value="vehCVToCOE"/>
            <param key="device.toc.manualType" value="vehLVOE"/>
            <param key="has.toc.device" value="true"/>
            <param key="device.toc.mrmDecel" value="3.000"/>
            <param key="device.toc.recoveryRate" value="0.207"/>
            <param key="device.toc.initialAwareness" value="0.509"/>
            <param key="device.toc.useColorScheme" value="true"/>
            <param key="device.toc.responseTime" value="0.000"/>
        </vType>
        <vType accel="1.218" actionStepLength="0.100" carFollowModel="ACC" color="blue" decel="2.172" emergencyDecel="9.000" id="vehCVToCOE29" lcAssertive="0.859" tau="1.223">
            <param key="device.toc.automatedType" value="vehCVToCOE"/>
            <param key="device.toc.manualType" value="vehLVOE"/>
            <param key="has.toc.device" value="true"/>
            <param key="device.toc.mrmDecel" value="3.000"/>
            <param key="device.toc.recoveryRate" value="0.043"/>
            <param key="device.toc.initialAwareness" value="0.997"/>
            <param key="device.toc.useColorScheme" value="true"/>
            <param key="device.toc.responseTime" value="0.000"/>
        </vType>
        <vType accel="1.093" actionStepLength="0.100" carFollowModel="ACC" color="blue" decel="3.405" emergencyDecel="9.000" id="vehCVToCOE30" lcAssertive="0.987" tau="1.199">
            <param key="device.toc.automatedType" value="vehCVToCOE"/>
            <param key="device.toc.manualType" value="vehLVOE"/>
            <param key="has.toc.device" value="true"/>
            <param key="device.toc.mrmDecel" value="3.000"/>
            <param key="device.toc.recoveryRate" value="0.061"/>
            <param key="device.toc.initialAwareness" value="0.656"/>
            <param key="device.toc.useColorScheme" value="true"/>
            <param key="device.toc.responseTime" value="0.000"/>
        </vType>
        <vType accel="1.109" actionStepLength="0.100" carFollowModel="ACC" color="blue" decel="2.047" emergencyDecel="9.000" id="vehCVToCOE31" lcAssertive="0.866" tau="1.240">
            <param key="device.toc.automatedType" value="vehCVToCOE"/>
            <param key="device.toc.manualType" value="vehLVOE"/>
            <param key="has.toc.device" value="true"/>
            <param key="device.toc.mrmDecel" value="3.000"/>
            <param key="device.toc.recoveryRate" value="0.198"/>
            <param key="device.toc.initialAwareness" value="0.666"/>
            <param key="device.toc.useColorScheme" value="true"/>
            <param key="device.toc.responseTime" value="0.000"/>
        </vType>
        <vType accel="1.148" actionStepLength="0.100" carFollowModel="ACC" color="blue" decel="3.246" emergencyDecel="9.000" id="vehCVToCOE32" lcAssertive="0.910" tau="1.212">
            <param key="device.toc.automatedType" value="vehCVToCOE"/>
            <param key="device.toc.manualType" value="vehLVOE"/>
            <param key="has.toc.device" value="true"/>
            <param key="device.toc.mrmDecel" value="3.000"/>
            <param key="device.toc.recoveryRate" value="0.116"/>
            <param key="device.toc.initialAwareness" value="0.309"/>
            <param key="device.toc.useColorScheme" value="true"/>
            <param key="device.toc.responseTime" value="0.000"/>
        </vType>
        <vType accel="1.643" actionStepLength="0.100" carFollowModel="ACC" color="blue" decel="3.074" emergencyDecel="9.000" id="vehCVToCOE33" lcAssertive="0.898" tau="1.193">
            <param key="device.toc.automatedType" value="vehCVToCOE"/>
            <param key="device.toc.manualType" value="vehLVOE"/>
            <param key="has.toc.device" value="true"/>
            <param key="device.toc.mrmDecel" value="3.000"/>
            <param key="device.toc.recoveryRate" value="0.314"/>
            <param key="device.toc.initialAwareness" value="0.541"/>
            <param key="device.toc.useColorScheme" value="true"/>
            <param key="device.toc.responseTime" value="0.000"/>
        </vType>
        <vType accel="1.387" actionStepLength="0.100" carFollowModel="ACC" color="blue" decel="3.161" emergencyDecel="9.000" id="vehCVToCOE34" lcAssertive="0.908" tau="1.210">
            <param key="device.toc.automatedType" value="vehCVToCOE"/>
            <param key="device.toc.manualType" value="vehLVOE"/>
            <param key="has.toc.device" value="true"/>
            <param key="device.toc.mrmDecel" value="3.000"/>
            <param key="device.toc.recoveryRate" value="0.220"/>
            <param key="device.toc.initialAwareness" value="0.961"/>
            <param key="device.toc.useColorScheme" value="true"/>
            <param key="device.toc.responseTime" value="0.000"/>
        </vType>
        <vType accel="1.199" actionStepLength="0.100" carFollowModel="ACC" color="blue" decel="3.748" emergencyDecel="9.000" id="vehCVToCOE35" lcAssertive="0.843" tau="1.265">
            <param key="device.toc.automatedType" value="vehCVToCOE"/>
            <param key="device.toc.manualType" value="vehLVOE"/>
            <param key="has.toc.device" value="true"/>
            <param key="device.toc.mrmDecel" value="3.000"/>
            <param key="device.toc.recoveryRate" value="0.231"/>
            <param key="device.toc.initialAwareness" value="0.136"/>
            <param key="device.toc.useColorScheme" value="true"/>
            <param key="device.toc.responseTime" value="0.000"/>
        </vType>
        <vType accel="0.933" actionStepLength="0.100" carFollowModel="ACC" color="blue" decel="2.358" emergencyDecel="9.000" id="vehCVToCOE36" lcAssertive="0.816" tau="1.255">
            <param key="device.toc.automatedType" value="vehCVToCOE"/>
            <param key="device.toc.manualType" value="vehLVOE"/>
            <param key="has.toc.device" value="true"/>
            <param key="device.toc.mrmDecel" value="3.000"/>
            <param key="device.toc.recoveryRate" value="0.367"/>
            <param key="device.toc.initialAwareness" value="0.824"/>
            <param key="device.toc.useColorScheme" value="true"/>
            <param key="device.toc.responseTime" value="0.000"/>
        </vType>
        <vType accel="1.441" actionStepLength="0.100" carFollowModel="ACC" color="blue" decel="3.284" emergencyDecel="9.000" id="vehCVToCOE37" lcAssertive="0.936" tau="1.196">
            <param key="device.toc.automatedType" value="vehCVToCOE"/>
            <param key="device.toc.manualType" value="vehLVOE"/>
            <param key="has.toc.device" value="true"/>
            <param key="device.toc.mrmDecel" value="3.000"/>
            <param key="device.toc.recoveryRate" value="0.229"/>
            <param key="device.toc.initialAwareness" value="0.885"/>
            <param key="device.toc.useColorScheme" value="true"/>
            <param key="device.toc.responseTime" value="0.000"/>
        </vType>
        <vType accel="0.859" actionStepLength="0.100" carFollowModel="ACC" color="blue" decel="3.612" emergencyDecel="9.000" id="vehCVToCOE38" lcAssertive="0.869" tau="1.176">
            <param key="device.toc.automatedType" value="vehCVToCOE"/>
            <param key="device.toc.manualType" value="vehLVOE"/>
            <param key="has.toc.device" value="true"/>
            <param key="device.toc.mrmDecel" value="3.000"/>
            <param key="device.toc.recoveryRate" value="0.244"/>
            <param key="device.toc.initialAwareness" value="0.929"/>
            <param key="device.toc.useColorScheme" value="true"/>
            <param key="device.toc.responseTime" value="0.000"/>
        </vType>
        <vType accel="0.990" actionStepLength="0.100" carFollowModel="ACC" color="blue" decel="2.426" emergencyDecel="9.000" id="vehCVToCOE39" lcAssertive="0.949" tau="1.176">
            <param key="device.toc.automatedType" value="vehCVToCOE"/>
            <param key="device.toc.manualType" value="vehLVOE"/>
            <param key="has.toc.device" value="true"/>
            <param key="device.toc.mrmDecel" value="3.000"/>
            <param key="device.toc.recoveryRate" value="0.271"/>
            <param key="device.toc.initialAwareness" value="0.502"/>
            <param key="device.toc.useColorScheme" value="true"/>
            <param key="device.toc.responseTime" value="0.000"/>
        </vType>
        <vType accel="1.101" actionStepLength="0.100" carFollowModel="ACC" color="blue" decel="2.597" emergencyDecel="9.000" id="vehCVToCOE40" lcAssertive="0.978" tau="1.184">
            <param key="device.toc.automatedType" value="vehCVToCOE"/>
            <param key="device.toc.manualType" value="vehLVOE"/>
            <param key="has.toc.device" value="true"/>
            <param key="device.toc.mrmDecel" value="3.000"/>
            <param key="device.toc.recoveryRate" value="0.197"/>
            <param key="device.toc.initialAwareness" value="0.518"/>
            <param key="device.toc.useColorScheme" value="true"/>
            <param key="device.toc.responseTime" value="0.000"/>
        </vType>
        <vType accel="0.859" actionStepLength="0.100" carFollowModel="ACC" color="blue" decel="3.945" emergencyDecel="9.000" id="vehCVToCOE41" lcAssertive="0.848" tau="1.217">
            <param key="device.toc.automatedType" value="vehCVToCOE"/>
            <param key="device.toc.manualType" value="vehLVOE"/>
            <param key="has.toc.device" value="true"/>
            <param key="device.toc.mrmDecel" value="3.000"/>
            <param key="device.toc.recoveryRate" value="0.265"/>
            <param key="device.toc.initialAwareness" value="0.490"/>
            <param key="device.toc.useColorScheme" value="true"/>
            <param key="device.toc.responseTime" value="0.000"/>
        </vType>