<?xml version="1.0" encoding="UTF-8"?>

<!-- generated on Do 07 Mär 2019 16:03:32 CET by Eclipse SUMO netedit Version v1_1_0+0417-c407ef5
<configuration xmlns:xsi="http://www.w3.org/2001/XMLSchema-instance" xsi:noNamespaceSchemaLocation="http://sumo.dlr.de/xsd/netconvertConfiguration.xsd">

    <input>
        <sumo-net-file value="net.net.xml"/>
    </input>

    <output>
        <output-file value="net.net.xml"/>
    </output>

    <processing>
        <geometry.max-grade.fix value="false"/>
        <offset.disable-normalization value="true"/>
        <lefthand value="false"/>
    </processing>

    <junctions>
        <no-turnarounds value="true"/>
        <junctions.corner-detail value="0"/>
        <junctions.limit-turn-speed value="-1"/>
        <rectangular-lane-cut value="false"/>
    </junctions>

    <pedestrian>
        <walkingareas value="false"/>
    </pedestrian>

</configuration>
-->

<net version="1.1" xmlns:xsi="http://www.w3.org/2001/XMLSchema-instance" xsi:noNamespaceSchemaLocation="http://sumo.dlr.de/xsd/net_file.xsd">

    <location netOffset="0.00,0.00" convBoundary="-350.77,-347.22,-150.77,-147.22" origBoundary="-10000000000.00,-10000000000.00,10000000000.00,10000000000.00" projParameter="!"/>

    <edge id=":C_0" function="internal">
        <lane id=":C_0_0" index="0" speed="13.89" length="9.03" shape="-252.37,-240.02 -252.72,-242.47 -253.77,-244.22 -255.52,-245.27 -257.97,-245.62"/>
    </edge>
    <edge id=":C_1" function="internal">
        <lane id=":C_1_0" index="0" speed="13.89" length="14.40" shape="-252.37,-240.02 -252.37,-254.42"/>
    </edge>
    <edge id=":C_2" function="internal">
        <lane id=":C_2_0" index="0" speed="13.89" length="5.93" shape="-252.37,-240.02 -251.82,-243.87 -250.77,-245.62"/>
    </edge>
    <edge id=":C_12" function="internal">
        <lane id=":C_12_0" index="0" speed="13.89" length="8.26" shape="-250.77,-245.62 -250.17,-246.62 -247.42,-248.27 -243.57,-248.82"/>
    </edge>
    <edge id=":C_3" function="internal">
        <lane id=":C_3_0" index="0" speed="13.89" length="9.03" shape="-243.57,-245.62 -246.02,-245.27 -247.77,-244.22 -248.82,-242.47 -249.17,-240.02"/>
    </edge>
    <edge id=":C_4" function="internal">
        <lane id=":C_4_0" index="0" speed="13.89" length="14.40" shape="-243.57,-245.62 -257.97,-245.62"/>
    </edge>
    <edge id=":C_5" function="internal">
        <lane id=":C_5_0" index="0" speed="13.89" length="14.19" shape="-243.57,-245.62 -247.42,-246.17 -250.17,-247.82 -251.82,-250.57 -252.37,-254.42"/>
    </edge>
    <edge id=":C_6" function="internal">
        <lane id=":C_6_0" index="0" speed="13.89" length="9.03" shape="-249.17,-254.42 -248.82,-251.97 -247.77,-250.22 -246.02,-249.17 -243.57,-248.82"/>
    </edge>
    <edge id=":C_7" function="internal">
        <lane id=":C_7_0" index="0" speed="13.89" length="14.40" shape="-249.17,-254.42 -249.17,-240.02"/>
    </edge>
    <edge id=":C_8" function="internal">
        <lane id=":C_8_0" index="0" speed="13.89" length="5.93" shape="-249.17,-254.42 -249.72,-250.57 -250.77,-248.82"/>
    </edge>
    <edge id=":C_13" function="internal">
        <lane id=":C_13_0" index="0" speed="13.89" length="8.26" shape="-250.77,-248.82 -251.37,-247.82 -254.12,-246.17 -257.97,-245.62"/>
    </edge>
    <edge id=":C_9" function="internal">
        <lane id=":C_9_0" index="0" speed="13.89" length="9.03" shape="-257.97,-248.82 -255.52,-249.17 -253.77,-250.22 -252.72,-251.97 -252.37,-254.42"/>
    </edge>
    <edge id=":C_10" function="internal">
        <lane id=":C_10_0" index="0" speed="13.89" length="14.40" shape="-257.97,-248.82 -243.57,-248.82"/>
    </edge>
    <edge id=":C_11" function="internal">
        <lane id=":C_11_0" index="0" speed="13.89" length="14.19" shape="-257.97,-248.82 -254.12,-248.27 -251.37,-246.62 -249.72,-243.87 -249.17,-240.02"/>
    </edge>

    <edge id="CE" from="C" to="E" priority="1">
        <lane id="CE_0" index="0" speed="13.89" length="92.80" shape="-243.57,-248.82 -150.77,-248.82"/>
    </edge>
    <edge id="CN" from="C" to="N" priority="2">
        <lane id="CN_0" index="0" speed="13.89" length="92.80" shape="-249.17,-240.02 -249.17,-147.22"/>
    </edge>
    <edge id="CS" from="C" to="S" priority="2">
        <lane id="CS_0" index="0" speed="13.89" length="92.80" shape="-252.37,-254.42 -252.37,-347.22"/>
    </edge>
    <edge id="CW" from="C" to="W" priority="1">
        <lane id="CW_0" index="0" speed="13.89" length="92.80" shape="-257.97,-245.62 -350.77,-245.62"/>
    </edge>
    <edge id="EC" from="E" to="C" priority="1">
        <lane id="EC_0" index="0" speed="13.89" length="92.80" shape="-150.77,-245.62 -243.57,-245.62"/>
    </edge>
    <edge id="NC" from="N" to="C" priority="2">
        <lane id="NC_0" index="0" speed="13.89" length="92.80" shape="-252.37,-147.22 -252.37,-240.02"/>
    </edge>
    <edge id="SC" from="S" to="C" priority="2">
        <lane id="SC_0" index="0" speed="13.89" length="92.80" shape="-249.17,-347.22 -249.17,-254.42"/>
    </edge>
    <edge id="WC" from="W" to="C" priority="1" type="roundabout">
        <lane id="WC_0" index="0" speed="13.89" length="92.80" shape="-350.77,-248.82 -257.97,-248.82"/>
    </edge>

    <junction id="C" type="priority" x="-250.77" y="-247.22" incLanes="NC_0 EC_0 SC_0 WC_0" intLanes=":C_0_0 :C_1_0 :C_12_0 :C_3_0 :C_4_0 :C_5_0 :C_6_0 :C_7_0 :C_13_0 :C_9_0 :C_10_0 :C_11_0" shape="-253.97,-240.02 -247.57,-240.02 -243.57,-244.02 -243.57,-250.42 -247.57,-254.42 -253.97,-254.42 -257.97,-250.42 -257.97,-244.02">
        <request index="0"  response="000000000000" foes="000100010000" cont="0"/>
        <request index="1"  response="000000000000" foes="111100110000" cont="0"/>
        <request index="2"  response="000011000000" foes="110011110000" cont="1"/>
        <request index="3"  response="000010000000" foes="100010000000" cont="0"/>
        <request index="4"  response="000110000111" foes="100110000111" cont="0"/>
        <request index="5"  response="011110000110" foes="011110000110" cont="0"/>
        <request index="6"  response="000000000000" foes="010000000100" cont="0"/>
        <request index="7"  response="000000000000" foes="110000111100" cont="0"/>
        <request index="8"  response="000000000011" foes="110000110011" cont="1"/>
        <request index="9"  response="000000000010" foes="000000100010" cont="0"/>
        <request index="10" response="000111000110" foes="000111100110" cont="0"/>
        <request index="11" response="000110011110" foes="000110011110" cont="0"/>
    </junction>
    <junction id="E" type="unregulated" x="-150.77" y="-247.22" incLanes="CE_0" intLanes="" shape="-150.77,-247.22 -150.77,-250.42 -150.77,-247.22"/>
    <junction id="N" type="unregulated" x="-250.77" y="-147.22" incLanes="CN_0" intLanes="" shape="-250.77,-147.22 -247.57,-147.22 -250.77,-147.22"/>
    <junction id="S" type="unregulated" x="-250.77" y="-347.22" incLanes="CS_0" intLanes="" shape="-250.77,-347.22 -253.97,-347.22 -250.77,-347.22"/>
    <junction id="W" type="unregulated" x="-350.77" y="-247.22" incLanes="CW_0" intLanes="" shape="-350.77,-247.22 -350.77,-244.02 -350.77,-247.22"/>

    <junction id=":C_12_0" type="internal" x="-250.77" y="-245.62" incLanes=":C_2_0 SC_0" intLanes=":C_4_0 :C_5_0 :C_6_0 :C_7_0 :C_10_0 :C_11_0"/>
    <junction id=":C_13_0" type="internal" x="-250.77" y="-248.82" incLanes=":C_8_0 NC_0" intLanes=":C_0_0 :C_1_0 :C_4_0 :C_5_0 :C_10_0 :C_11_0"/>

    <connection from="EC" to="CN" fromLane="0" toLane="0" via=":C_3_0" dir="r" state="m"/>
    <connection from="EC" to="CW" fromLane="0" toLane="0" via=":C_4_0" dir="s" state="m"/>
    <connection from="EC" to="CS" fromLane="0" toLane="0" via=":C_5_0" dir="l" state="m"/>
    <connection from="NC" to="CW" fromLane="0" toLane="0" via=":C_0_0" dir="r" state="M"/>
    <connection from="NC" to="CS" fromLane="0" toLane="0" via=":C_1_0" dir="s" state="M"/>
    <connection from="NC" to="CE" fromLane="0" toLane="0" via=":C_2_0" dir="l" state="m"/>
    <connection from="SC" to="CE" fromLane="0" toLane="0" via=":C_6_0" dir="r" state="M"/>
    <connection from="SC" to="CN" fromLane="0" toLane="0" via=":C_7_0" dir="s" state="M"/>
    <connection from="SC" to="CW" fromLane="0" toLane="0" via=":C_8_0" dir="l" state="m"/>
    <connection from="WC" to="CS" fromLane="0" toLane="0" via=":C_9_0" dir="r" state="m"/>
    <connection from="WC" to="CE" fromLane="0" toLane="0" visibility="100.00" via=":C_10_0" dir="s" state="m"/>
    <connection from="WC" to="CN" fromLane="0" toLane="0" via=":C_11_0" dir="l" state="m"/>

    <connection from=":C_0" to="CW" fromLane="0" toLane="0" dir="r" state="M"/>
    <connection from=":C_1" to="CS" fromLane="0" toLane="0" dir="s" state="M"/>
    <connection from=":C_2" to="CE" fromLane="0" toLane="0" via=":C_12_0" dir="l" state="m"/>
    <connection from=":C_12" to="CE" fromLane="0" toLane="0" dir="l" state="M"/>
    <connection from=":C_3" to="CN" fromLane="0" toLane="0" dir="r" state="M"/>
    <connection from=":C_4" to="CW" fromLane="0" toLane="0" dir="s" state="M"/>
    <connection from=":C_5" to="CS" fromLane="0" toLane="0" dir="l" state="M"/>
    <connection from=":C_6" to="CE" fromLane="0" toLane="0" dir="r" state="M"/>
    <connection from=":C_7" to="CN" fromLane="0" toLane="0" dir="s" state="M"/>
    <connection from=":C_8" to="CW" fromLane="0" toLane="0" via=":C_13_0" dir="l" state="m"/>
    <connection from=":C_13" to="CW" fromLane="0" toLane="0" dir="l" state="M"/>
    <connection from=":C_9" to="CS" fromLane="0" toLane="0" dir="r" state="M"/>
    <connection from=":C_10" to="CE" fromLane="0" toLane="0" dir="s" state="M"/>
    <connection from=":C_11" to="CN" fromLane="0" toLane="0" dir="l" state="M"/>

</net>
