<?xml version="1.0" encoding="UTF-8"?>

<routes xmlns:xsi="http://www.w3.org/2001/XMLSchema-instance" xsi:noNamespaceSchemaLocation="http://sumo.dlr.de/xsd/routes_file.xsd">
    <route id="WE" edges="WC CE" />
    <vType id="t1" sigma="0"/>
    <vType id="t2" sigma="0"/>
    
    <vehicle id="veh0" route="WE" depart="1" type="t1" >
            <param key="device.toc.automatedType" value="t1"/>
            <param key="has.toc.device" value="true"/>
            <param key="device.toc.mrmDecel" value="3.000"/>
            <param key="device.toc.recoveryRate" value="0.150"/>
            <param key="device.toc.manualType" value="t2"/>
            <param key="device.toc.initialAwareness" value="0.870"/>
            <param key="device.toc.useColorScheme" value="true"/>
            <param key="device.toc.responseTime" value="4.548"/>
    </vehicle>
    
</routes>
