<?xml version="1.0" encoding="UTF-8"?>

<configuration xmlns:xsi="http://www.w3.org/2001/XMLSchema-instance" xsi:noNamespaceSchemaLocation="http://sumo.sf.net/xsd/iCSConfiguration.xsd">

    <configuration>
        <!-- Loads the named config on startup -->
        <configuration-file value="" synonymes="c configuration" type="FILE"/>

        <!-- Saves current configuration into FILE -->
        <save-configuration value="" synonymes="save-config" type="FILE"/>

        <!-- Saves a configuration template (empty) into FILE -->
        <save-template value="" type="FILE"/>

        <!-- Saves the configuration schema into FILE -->
        <save-schema value="" type="FILE"/>

        <!-- Adds comments to saved template, configuration, or schema -->
        <save-commented value="" synonymes="save-template.commented" type="BOOL"/>

    </configuration>

    <scenario>
        <!-- Defines the begin time of the scenario simulation -->
        <begin value="0" synonymes="b" type="INT"/>

        <!-- Defines the end time of the scenario simulation -->
        <end value="" synonymes="e" type="INT"/>

        <!-- Time resolution of every simulation step (ms) -->
        <resolution value="1000" type="INT"/>

        <!-- Defines the percentage of vehicles equiped with a RAT -->
        <penetration-rate value="" synonymes="r" type="INT"/>

        <!-- The entry point file for the facilities block configuration. -->
        <facilities-config-file value="" synonymes="f" type="FILE"/>

        <!-- Defines the time the iCS will keep schedule messages in the internal tables. That time window past, they are erased. -->
        <message-reception-window value="" synonymes="m" type="INT"/>

        <!-- Whether iCS shall be run in interactive mode -->
        <interactive value="false" type="BOOL"/>

    </scenario>

    <trafficsim>
        <!-- Defines the traffic simulation executable -->
        <traffic-executable value="" type="STR"/>

        <!-- Defines the traffic simulation configuration -->
        <traffic-file value="" type="FILE"/>

        <!-- Defines the host the traffic simulation shall run on -->
        <traffic-host value="localhost" type="STR"/>

        <!-- Defines the port the traffic simulation shall use -->
        <traffic-port value="" type="INT"/>

    </trafficsim>

    <communicationsim>
        <!-- Defines the communication simulation executable -->
        <communication-executable value="" type="STR"/>

        <!-- Defines the host the communication simulation shall run on -->
        <communication-host value="localhost" type="STR"/>

        <!-- Defines the port the communication simulation shall use -->
        <communication-port value="" type="INT"/>

        <!-- Defines the general ns-3 script configuration. -->
        <communication-general-params-file value="" type="STR"/>

        <!-- Defines the communication technologies configuration in ns-3 -->
        <communication-config-technologies-file value="" type="STR"/>

    </communicationsim>

    <applications>
        <!-- Defines the Application configurations -->
        <app-config-file value="" synonymes="a apps" type="FILE"/>

    </applications>

    <logs>
        <!-- Defines the place where the iCS log file will be stored -->
        <ics-log-path value="" type="FILE"/>

        <!-- Defines the time step amount for each log file. -->
        <ics-log-time-size value="" type="STR"/>

        <!-- Defines the output level of the log [ERROR, WARNING, INFO] -->
        <ics-log-level value="" type="STR"/>

        <!-- Defines the place where the ns-3 log file will be stored -->
        <ns3-log-path value="" type="FILE"/>

    </logs>

    <report>
        <!-- Switches to verbose output -->
        <verbose value="false" synonymes="v" type="BOOL"/>

        <!-- Prints option values before processing -->
        <print-options value="false" synonymes="p" type="BOOL"/>

        <!-- Prints this screen -->
        <help value="false" synonymes="?" type="BOOL"/>

        <!-- Prints the current version -->
        <version value="false" synonymes="V" type="BOOL"/>

        <!-- Enable schema validation of XML inputs -->
        <xml-validation value="false" synonymes="X" type="BOOL"/>

        <!-- Disables output of warnings -->
        <no-warnings value="false" synonymes="W suppress-warnings" type="BOOL"/>

        <!-- Writes all messages to FILE (implies verbose) -->
        <log value="" synonymes="l log-file" type="FILE"/>

        <!-- Writes all non-error messages to FILE (implies verbose) -->
        <message-log value="" type="FILE"/>

        <!-- Writes all warnings and errors to FILE -->
        <error-log value="" type="FILE"/>

    </report>

    <random_number>
        <!-- Initialises the random number generator with the current system time -->
        <random value="false" synonymes="abs-rand" type="BOOL"/>

        <!-- Initialises the random number generator with the given value -->
        <seed value="23423" synonymes="srand" type="INT"/>

    </random_number>

</configuration>
