<additional xmlns:xsi="http://www.w3.org/2001/XMLSchema-instance" xsi:noNamespaceSchemaLocation="http://sumo.dlr.de/xsd/additional_file.xsd">
    <vTypeDistribution id="vehCVToCPS">
        <vType accel="1.362" actionStepLength="0.100" carFollowModel="ACC" color="blue" decel="2.024" emergencyDecel="9.000" id="vehCVToCPS0" lcAssertive="0.868" tau="1.225">
            <param key="device.toc.automatedType" value="vehCVToCPS"/>
            <param key="device.toc.manualType" value="vehLVPS"/>
            <param key="has.toc.device" value="true"/>
            <param key="device.toc.mrmDecel" value="3.000"/>
            <param key="device.toc.recoveryRate" value="0.150"/>
            <param key="device.toc.initialAwareness" value="0.470"/>
            <param key="device.toc.useColorScheme" value="true"/>
            <param key="device.toc.responseTime" value="0.000"/>
        </vType>
        <vType accel="1.868" actionStepLength="0.100" carFollowModel="ACC" color="blue" decel="2.343" emergencyDecel="9.000" id="vehCVToCPS1" lcAssertive="0.872" tau="1.153">
            <param key="device.toc.automatedType" value="vehCVToCPS"/>
            <param key="device.toc.manualType" value="vehLVPS"/>
            <param key="has.toc.device" value="true"/>
            <param key="device.toc.mrmDecel" value="3.000"/>
            <param key="device.toc.recoveryRate" value="0.348"/>
            <param key="device.toc.initialAwareness" value="0.410"/>
            <param key="device.toc.useColorScheme" value="true"/>
            <param key="device.toc.responseTime" value="0.000"/>
        </vType>
        <vType accel="1.810" actionStepLength="0.100" carFollowModel="ACC" color="blue" decel="2.568" emergencyDecel="9.000" id="vehCVToCPS2" lcAssertive="0.944" tau="1.265">
            <param key="device.toc.automatedType" value="vehCVToCPS"/>
            <param key="device.toc.manualType" value="vehLVPS"/>
            <param key="has.toc.device" value="true"/>
            <param key="device.toc.mrmDecel" value="3.000"/>
            <param key="device.toc.recoveryRate" value="0.107"/>
            <param key="device.toc.initialAwareness" value="0.583"/>
            <param key="device.toc.useColorScheme" value="true"/>
            <param key="device.toc.responseTime" value="0.000"/>
        </vType>
        <vType accel="1.279" actionStepLength="0.100" carFollowModel="ACC" color="blue" decel="3.867" emergencyDecel="9.000" id="vehCVToCPS3" lcAssertive="0.988" tau="1.146">
            <param key="device.toc.automatedType" value="vehCVToCPS"/>
            <param key="device.toc.manualType" value="vehLVPS"/>
            <param key="has.toc.device" value="true"/>
            <param key="device.toc.mrmDecel" value="3.000"/>
            <param key="device.toc.recoveryRate" value="0.214"/>
            <param key="device.toc.initialAwareness" value="0.502"/>
            <param key="device.toc.useColorScheme" value="true"/>
            <param key="device.toc.responseTime" value="0.000"/>
        </vType>
        <vType accel="1.721" actionStepLength="0.100" carFollowModel="ACC" color="blue" decel="3.978" emergencyDecel="9.000" id="vehCVToCPS4" lcAssertive="0.865" tau="1.200">
            <param key="device.toc.automatedType" value="vehCVToCPS"/>
            <param key="device.toc.manualType" value="vehLVPS"/>
            <param key="has.toc.device" value="true"/>
            <param key="device.toc.mrmDecel" value="3.000"/>
            <param key="device.toc.recoveryRate" value="0.104"/>
            <param key="device.toc.initialAwareness" value="0.605"/>
            <param key="device.toc.useColorScheme" value="true"/>
            <param key="device.toc.responseTime" value="0.000"/>
        </vType>
        <vType accel="1.333" actionStepLength="0.100" carFollowModel="ACC" color="blue" decel="3.250" emergencyDecel="9.000" id="vehCVToCPS5" lcAssertive="0.816" tau="1.252">
            <param key="device.toc.automatedType" value="vehCVToCPS"/>
            <param key="device.toc.manualType" value="vehLVPS"/>
            <param key="has.toc.device" value="true"/>
            <param key="device.toc.mrmDecel" value="3.000"/>
            <param key="device.toc.recoveryRate" value="0.191"/>
            <param key="device.toc.initialAwareness" value="0.234"/>
            <param key="device.toc.useColorScheme" value="true"/>
            <param key="device.toc.responseTime" value="0.000"/>
        </vType>
        <vType accel="0.935" actionStepLength="0.100" carFollowModel="ACC" color="blue" decel="2.782" emergencyDecel="9.000" id="vehCVToCPS6" lcAssertive="0.875" tau="1.133">
            <param key="device.toc.automatedType" value="vehCVToCPS"/>
            <param key="device.toc.manualType" value="vehLVPS"/>
            <param key="has.toc.device" value="true"/>
            <param key="device.toc.mrmDecel" value="3.000"/>
            <param key="device.toc.recoveryRate" value="0.141"/>
            <param key="device.toc.initialAwareness" value="0.495"/>
            <param key="device.toc.useColorScheme" value="true"/>
            <param key="device.toc.responseTime" value="0.000"/>
        </vType>
        <vType accel="1.314" actionStepLength="0.100" carFollowModel="ACC" color="blue" decel="2.296" emergencyDecel="9.000" id="vehCVToCPS7" lcAssertive="0.972" tau="1.175">
            <param key="device.toc.automatedType" value="vehCVToCPS"/>
            <param key="device.toc.manualType" value="vehLVPS"/>
            <param key="has.toc.device" value="true"/>
            <param key="device.toc.mrmDecel" value="3.000"/>
            <param key="device.toc.recoveryRate" value="0.283"/>
            <param key="device.toc.initialAwareness" value="0.327"/>
            <param key="device.toc.useColorScheme" value="true"/>
            <param key="device.toc.responseTime" value="0.000"/>
        </vType>
        <vType accel="1.366" actionStepLength="0.100" carFollowModel="ACC" color="blue" decel="3.340" emergencyDecel="9.000" id="vehCVToCPS8" lcAssertive="0.903" tau="1.197">
            <param key="device.toc.automatedType" value="vehCVToCPS"/>
            <param key="device.toc.manualType" value="vehLVPS"/>
            <param key="has.toc.device" value="true"/>
            <param key="device.toc.mrmDecel" value="3.000"/>
            <param key="device.toc.recoveryRate" value="0.182"/>
            <param key="device.toc.initialAwareness" value="0.386"/>
            <param key="device.toc.useColorScheme" value="true"/>
            <param key="device.toc.responseTime" value="0.000"/>
        </vType>
        <vType accel="0.984" actionStepLength="0.100" carFollowModel="ACC" color="blue" decel="3.888" emergencyDecel="9.000" id="vehCVToCPS9" lcAssertive="0.867" tau="1.112">
            <param key="device.toc.automatedType" value="vehCVToCPS"/>
            <param key="device.toc.manualType" value="vehLVPS"/>
            <param key="has.toc.device" value="true"/>
            <param key="device.toc.mrmDecel" value="3.000"/>
            <param key="device.toc.recoveryRate" value="0.250"/>
            <param key="device.toc.initialAwareness" value="0.428"/>
            <param key="device.toc.useColorScheme" value="true"/>
            <param key="device.toc.responseTime" value="0.000"/>
        </vType>
        <vType accel="0.758" actionStepLength="0.100" carFollowModel="ACC" color="blue" decel="3.421" emergencyDecel="9.000" id="vehCVToCPS10" lcAssertive="0.978" tau="1.260">
            <param key="device.toc.automatedType" value="vehCVToCPS"/>
            <param key="device.toc.manualType" value="vehLVPS"/>
            <param key="has.toc.device" value="true"/>
            <param key="device.toc.mrmDecel" value="3.000"/>
            <param key="device.toc.recoveryRate" value="0.021"/>
            <param key="device.toc.initialAwareness" value="0.220"/>
            <param key="device.toc.useColorScheme" value="true"/>
            <param key="device.toc.responseTime" value="0.000"/>
        </vType>
        <vType accel="1.813" actionStepLength="0.100" carFollowModel="ACC" color="blue" decel="2.792" emergencyDecel="9.000" id="vehCVToCPS11" lcAssertive="0.932" tau="1.101">
            <param key="device.toc.automatedType" value="vehCVToCPS"/>
            <param key="device.toc.manualType" value="vehLVPS"/>
            <param key="has.toc.device" value="true"/>
            <param key="device.toc.mrmDecel" value="3.000"/>
            <param key="device.toc.recoveryRate" value="0.247"/>
            <param key="device.toc.initialAwareness" value="0.246"/>
            <param key="device.toc.useColorScheme" value="true"/>
            <param key="device.toc.responseTime" value="0.000"/>
        </vType>
        <vType accel="0.808" actionStepLength="0.100" carFollowModel="ACC" color="blue" decel="3.866" emergencyDecel="9.000" id="vehCVToCPS12" lcAssertive="0.858" tau="1.292">
            <param key="device.toc.automatedType" value="vehCVToCPS"/>
            <param key="device.toc.manualType" value="vehLVPS"/>
            <param key="has.toc.device" value="true"/>
            <param key="device.toc.mrmDecel" value="3.000"/>
            <param key="device.toc.recoveryRate" value="0.187"/>
            <param key="device.toc.initialAwareness" value="0.156"/>
            <param key="device.toc.useColorScheme" value="true"/>
            <param key="device.toc.responseTime" value="0.000"/>
        </vType>
        <vType accel="1.402" actionStepLength="0.100" carFollowModel="ACC" color="blue" decel="3.656" emergencyDecel="9.000" id="vehCVToCPS13" lcAssertive="0.940" tau="1.273">
            <param key="device.toc.automatedType" value="vehCVToCPS"/>
            <param key="device.toc.manualType" value="vehLVPS"/>
            <param key="has.toc.device" value="true"/>
            <param key="device.toc.mrmDecel" value="3.000"/>
            <param key="device.toc.recoveryRate" value="0.255"/>
            <param key="device.toc.initialAwareness" value="0.633"/>
            <param key="device.toc.useColorScheme" value="true"/>
            <param key="device.toc.responseTime" value="0.000"/>
        </vType>
        <vType accel="1.035" actionStepLength="0.100" carFollowModel="ACC" color="blue" decel="3.235" emergencyDecel="9.000" id="vehCVToCPS14" lcAssertive="0.875" tau="1.257">
            <param key="device.toc.automatedType" value="vehCVToCPS"/>
            <param key="device.toc.manualType" value="vehLVPS"/>
            <param key="has.toc.device" value="true"/>
            <param key="device.toc.mrmDecel" value="3.000"/>
            <param key="device.toc.recoveryRate" value="0.237"/>
            <param key="device.toc.initialAwareness" value="0.678"/>
            <param key="device.toc.useColorScheme" value="true"/>
            <param key="device.toc.responseTime" value="0.000"/>
        </vType>
        <vType accel="0.947" actionStepLength="0.100" carFollowModel="ACC" color="blue" decel="2.762" emergencyDecel="9.000" id="vehCVToCPS15" lcAssertive="0.824" tau="1.242">
            <param key="device.toc.automatedType" value="vehCVToCPS"/>
            <param key="device.toc.manualType" value="vehLVPS"/>
            <param key="has.toc.device" value="true"/>
            <param key="device.toc.mrmDecel" value="3.000"/>
            <param key="device.toc.recoveryRate" value="0.254"/>
            <param key="device.toc.initialAwareness" value="0.839"/>
            <param key="device.toc.useColorScheme" value="true"/>
            <param key="device.toc.responseTime" value="0.000"/>
        </vType>
        <vType accel="1.374" actionStepLength="0.100" carFollowModel="ACC" color="blue" decel="2.535" emergencyDecel="9.000" id="vehCVToCPS16" lcAssertive="0.934" tau="1.171">
            <param key="device.toc.automatedType" value="vehCVToCPS"/>
            <param key="device.toc.manualType" value="vehLVPS"/>
            <param key="has.toc.device" value="true"/>
            <param key="device.toc.mrmDecel" value="3.000"/>
            <param key="device.toc.recoveryRate" value="0.250"/>
            <param key="device.toc.initialAwareness" value="0.483"/>
            <param key="device.toc.useColorScheme" value="true"/>
            <param key="device.toc.responseTime" value="0.000"/>
        </vType>
        <vType accel="1.104" actionStepLength="0.100" carFollowModel="ACC" color="blue" decel="2.987" emergencyDecel="9.000" id="vehCVToCPS17" lcAssertive="0.903" tau="1.238">
            <param key="device.toc.automatedType" value="vehCVToCPS"/>
            <param key="device.toc.manualType" value="vehLVPS"/>
            <param key="has.toc.device" value="true"/>
            <param key="device.toc.mrmDecel" value="3.000"/>
            <param key="device.toc.recoveryRate" value="0.117"/>
            <param key="device.toc.initialAwareness" value="0.862"/>
            <param key="device.toc.useColorScheme" value="true"/>
            <param key="device.toc.responseTime" value="0.000"/>
        </vType>
        <vType accel="1.441" actionStepLength="0.100" carFollowModel="ACC" color="blue" decel="3.953" emergencyDecel="9.000" id="vehCVToCPS18" lcAssertive="0.842" tau="1.162">
            <param key="device.toc.automatedType" value="vehCVToCPS"/>
            <param key="device.toc.manualType" value="vehLVPS"/>
            <param key="has.toc.device" value="true"/>
            <param key="device.toc.mrmDecel" value="3.000"/>
            <param key="device.toc.recoveryRate" value="0.373"/>
            <param key="device.toc.initialAwareness" value="0.390"/>
            <param key="device.toc.useColorScheme" value="true"/>
            <param key="device.toc.responseTime" value="0.000"/>
        </vType>
        <vType accel="1.878" actionStepLength="0.100" carFollowModel="ACC" color="blue" decel="2.653" emergencyDecel="9.000" id="vehCVToCPS19" lcAssertive="0.947" tau="1.208">
            <param key="device.toc.automatedType" value="vehCVToCPS"/>
            <param key="device.toc.manualType" value="vehLVPS"/>
            <param key="has.toc.device" value="true"/>
            <param key="device.toc.mrmDecel" value="3.000"/>
            <param key="device.toc.recoveryRate" value="0.049"/>
            <param key="device.toc.initialAwareness" value="0.245"/>
            <param key="device.toc.useColorScheme" value="true"/>
            <param key="device.toc.responseTime" value="0.000"/>
        </vType>
        <vType accel="0.886" actionStepLength="0.100" carFollowModel="ACC" color="blue" decel="2.887" emergencyDecel="9.000" id="vehCVToCPS20" lcAssertive="0.894" tau="1.145">
            <param key="device.toc.automatedType" value="vehCVToCPS"/>
            <param key="device.toc.manualType" value="vehLVPS"/>
            <param key="has.toc.device" value="true"/>
            <param key="device.toc.mrmDecel" value="3.000"/>
            <param key="device.toc.recoveryRate" value="0.220"/>
            <param key="device.toc.initialAwareness" value="0.241"/>
            <param key="device.toc.useColorScheme" value="true"/>
            <param key="device.toc.responseTime" value="0.000"/>
        </vType>
        <vType accel="0.765" actionStepLength="0.100" carFollowModel="ACC" color="blue" decel="3.722" emergencyDecel="9.000" id="vehCVToCPS21" lcAssertive="0.914" tau="1.222">
            <param key="device.toc.automatedType" value="vehCVToCPS"/>
            <param key="device.toc.manualType" value="vehLVPS"/>
            <param key="has.toc.device" value="true"/>
            <param key="device.toc.mrmDecel" value="3.000"/>
            <param key="device.toc.recoveryRate" value="0.158"/>
            <param key="device.toc.initialAwareness" value="0.161"/>
            <param key="device.toc.useColorScheme" value="true"/>
            <param key="device.toc.responseTime" value="0.000"/>
        </vType>
        <vType accel="1.899" actionStepLength="0.100" carFollowModel="ACC" color="blue" decel="3.877" emergencyDecel="9.000" id="vehCVToCPS22" lcAssertive="0.974" tau="1.248">
            <param key="device.toc.automatedType" value="vehCVToCPS"/>
            <param key="device.toc.manualType" value="vehLVPS"/>
            <param key="has.toc.device" value="true"/>
            <param key="device.toc.mrmDecel" value="3.000"/>
            <param key="device.toc.recoveryRate" value="0.100"/>
            <param key="device.toc.initialAwareness" value="0.751"/>
            <param key="device.toc.useColorScheme" value="true"/>
            <param key="device.toc.responseTime" value="0.000"/>
        </vType>
        <vType accel="1.627" actionStepLength="0.100" carFollowModel="ACC" color="blue" decel="2.589" emergencyDecel="9.000" id="vehCVToCPS23" lcAssertive="0.884" tau="1.180">
            <param key="device.toc.automatedType" value="vehCVToCPS"/>
            <param key="device.toc.manualType" value="vehLVPS"/>
            <param key="has.toc.device" value="true"/>
            <param key="device.toc.mrmDecel" value="3.000"/>
            <param key="device.toc.recoveryRate" value="0.202"/>
            <param key="device.toc.initialAwareness" value="0.560"/>
            <param key="device.toc.useColorScheme" value="true"/>
            <param key="device.toc.responseTime" value="0.000"/>
        </vType>
        <vType accel="1.977" actionStepLength="0.100" carFollowModel="ACC" color="blue" decel="2.919" emergencyDecel="9.000" id="vehCVToCPS24" lcAssertive="0.892" tau="1.179">
            <param key="device.toc.automatedType" value="vehCVToCPS"/>
            <param key="device.toc.manualType" value="vehLVPS"/>
            <param key="has.toc.device" value="true"/>
            <param key="device.toc.mrmDecel" value="3.000"/>
            <param key="device.toc.recoveryRate" value="0.274"/>
            <param key="device.toc.initialAwareness" value="0.577"/>
            <param key="device.toc.useColorScheme" value="true"/>
            <param key="device.toc.responseTime" value="0.000"/>
        </vType>
        <vType accel="1.766" actionStepLength="0.100" carFollowModel="ACC" color="blue" decel="3.092" emergencyDecel="9.000" id="vehCVToCPS25" lcAssertive="0.948" tau="1.110">
            <param key="device.toc.automatedType" value="vehCVToCPS"/>
            <param key="device.toc.manualType" value="vehLVPS"/>
            <param key="has.toc.device" value="true"/>
            <param key="device.toc.mrmDecel" value="3.000"/>
            <param key="device.toc.recoveryRate" value="0.247"/>
            <param key="device.toc.initialAwareness" value="0.489"/>
            <param key="device.toc.useColorScheme" value="true"/>
            <param key="device.toc.responseTime" value="0.000"/>
        </vType>
        <vType accel="1.759" actionStepLength="0.100" carFollowModel="ACC" color="blue" decel="2.311" emergencyDecel="9.000" id="vehCVToCPS26" lcAssertive="0.859" tau="1.152">
            <param key="device.toc.automatedType" value="vehCVToCPS"/>
            <param key="device.toc.manualType" value="vehLVPS"/>
            <param key="has.toc.device" value="true"/>
            <param key="device.toc.mrmDecel" value="3.000"/>
            <param key="device.toc.recoveryRate" value="0.140"/>
            <param key="device.toc.initialAwareness" value="0.270"/>
            <param key="device.toc.useColorScheme" value="true"/>
            <param key="device.toc.responseTime" value="0.000"/>
        </vType>
        <vType accel="1.888" actionStepLength="0.100" carFollowModel="ACC" color="blue" decel="2.906" emergencyDecel="9.000" id="vehCVToCPS27" lcAssertive="0.992" tau="1.132">
            <param key="device.toc.automatedType" value="vehCVToCPS"/>
            <param key="device.toc.manualType" value="vehLVPS"/>
            <param key="has.toc.device" value="true"/>
            <param key="device.toc.mrmDecel" value="3.000"/>
            <param key="device.toc.recoveryRate" value="0.208"/>
            <param key="device.toc.initialAwareness" value="0.735"/>
            <param key="device.toc.useColorScheme" value="true"/>
            <param key="device.toc.responseTime" value="0.000"/>
        </vType>
        <vType accel="1.570" actionStepLength="0.100" carFollowModel="ACC" color="blue" decel="2.297" emergencyDecel="9.000" id="vehCVToCPS28" lcAssertive="0.836" tau="1.215">
            <param key="device.toc.automatedType" value="vehCVToCPS"/>
            <param key="device.toc.manualType" value="vehLVPS"/>
            <param key="has.toc.device" value="true"/>
            <param key="device.toc.mrmDecel" value="3.000"/>
            <param key="device.toc.recoveryRate" value="0.315"/>
            <param key="device.toc.initialAwareness" value="0.460"/>
            <param key="device.toc.useColorScheme" value="true"/>
            <param key="device.toc.responseTime" value="0.000"/>
        </vType>
        <vType accel="1.218" actionStepLength="0.100" carFollowModel="ACC" color="blue" decel="2.172" emergencyDecel="9.000" id="vehCVToCPS29" lcAssertive="0.859" tau="1.233">
            <param key="device.toc.automatedType" value="vehCVToCPS"/>
            <param key="device.toc.manualType" value="vehLVPS"/>
            <param key="has.toc.device" value="true"/>
            <param key="device.toc.mrmDecel" value="3.000"/>
            <param key="device.toc.recoveryRate" value="0.223"/>
            <param key="device.toc.initialAwareness" value="0.597"/>
            <param key="device.toc.useColorScheme" value="true"/>
            <param key="device.toc.responseTime" value="0.000"/>
        </vType>
        <vType accel="1.093" actionStepLength="0.100" carFollowModel="ACC" color="blue" decel="3.405" emergencyDecel="9.000" id="vehCVToCPS30" lcAssertive="0.987" tau="1.199">
            <param key="device.toc.automatedType" value="vehCVToCPS"/>
            <param key="device.toc.manualType" value="vehLVPS"/>
            <param key="has.toc.device" value="true"/>
            <param key="device.toc.mrmDecel" value="3.000"/>
            <param key="device.toc.recoveryRate" value="0.061"/>
            <param key="device.toc.initialAwareness" value="0.256"/>
            <param key="device.toc.useColorScheme" value="true"/>
            <param key="device.toc.responseTime" value="0.000"/>
        </vType>
        <vType accel="1.109" actionStepLength="0.100" carFollowModel="ACC" color="blue" decel="2.047" emergencyDecel="9.000" id="vehCVToCPS31" lcAssertive="0.889" tau="1.240">
            <param key="device.toc.automatedType" value="vehCVToCPS"/>
            <param key="device.toc.manualType" value="vehLVPS"/>
            <param key="has.toc.device" value="true"/>
            <param key="device.toc.mrmDecel" value="3.000"/>
            <param key="device.toc.recoveryRate" value="0.198"/>
            <param key="device.toc.initialAwareness" value="0.659"/>
            <param key="device.toc.useColorScheme" value="true"/>
            <param key="device.toc.responseTime" value="0.000"/>
        </vType>
        <vType accel="1.148" actionStepLength="0.100" carFollowModel="ACC" color="blue" decel="3.246" emergencyDecel="9.000" id="vehCVToCPS32" lcAssertive="0.893" tau="1.166">
            <param key="device.toc.automatedType" value="vehCVToCPS"/>
            <param key="device.toc.manualType" value="vehLVPS"/>
            <param key="has.toc.device" value="true"/>
            <param key="device.toc.mrmDecel" value="3.000"/>
            <param key="device.toc.recoveryRate" value="0.212"/>
            <param key="device.toc.initialAwareness" value="0.330"/>
            <param key="device.toc.useColorScheme" value="true"/>
            <param key="device.toc.responseTime" value="0.000"/>
        </vType>
        <vType accel="1.574" actionStepLength="0.100" carFollowModel="ACC" color="blue" decel="2.469" emergencyDecel="9.000" id="vehCVToCPS33" lcAssertive="0.910" tau="1.276">
            <param key="device.toc.automatedType" value="vehCVToCPS"/>
            <param key="device.toc.manualType" value="vehLVPS"/>
            <param key="has.toc.device" value="true"/>
            <param key="device.toc.mrmDecel" value="3.000"/>
            <param key="device.toc.recoveryRate" value="0.214"/>
            <param key="device.toc.initialAwareness" value="0.294"/>
            <param key="device.toc.useColorScheme" value="true"/>
            <param key="device.toc.responseTime" value="0.000"/>
        </vType>
        <vType accel="1.661" actionStepLength="0.100" carFollowModel="ACC" color="blue" decel="3.870" emergencyDecel="9.000" id="vehCVToCPS34" lcAssertive="0.908" tau="1.220">
            <param key="device.toc.automatedType" value="vehCVToCPS"/>
            <param key="device.toc.manualType" value="vehLVPS"/>
            <param key="has.toc.device" value="true"/>
            <param key="device.toc.mrmDecel" value="3.000"/>
            <param key="device.toc.recoveryRate" value="0.189"/>
            <param key="device.toc.initialAwareness" value="0.770"/>
            <param key="device.toc.useColorScheme" value="true"/>
            <param key="device.toc.responseTime" value="0.000"/>
        </vType>
        <vType accel="1.199" actionStepLength="0.100" carFollowModel="ACC" color="blue" decel="3.748" emergencyDecel="9.000" id="vehCVToCPS35" lcAssertive="0.843" tau="1.265">
            <param key="device.toc.automatedType" value="vehCVToCPS"/>
            <param key="device.toc.manualType" value="vehLVPS"/>
            <param key="has.toc.device" value="true"/>
            <param key="device.toc.mrmDecel" value="3.000"/>
            <param key="device.toc.recoveryRate" value="0.231"/>
            <param key="device.toc.initialAwareness" value="0.645"/>
            <param key="device.toc.useColorScheme" value="true"/>
            <param key="device.toc.responseTime" value="0.000"/>
        </vType>
        <vType accel="0.933" actionStepLength="0.100" carFollowModel="ACC" color="blue" decel="2.358" emergencyDecel="9.000" id="vehCVToCPS36" lcAssertive="0.816" tau="1.255">
            <param key="device.toc.automatedType" value="vehCVToCPS"/>
            <param key="device.toc.manualType" value="vehLVPS"/>
            <param key="has.toc.device" value="true"/>
            <param key="device.toc.mrmDecel" value="3.000"/>
            <param key="device.toc.recoveryRate" value="0.367"/>
            <param key="device.toc.initialAwareness" value="0.424"/>
            <param key="device.toc.useColorScheme" value="true"/>
            <param key="device.toc.responseTime" value="0.000"/>
        </vType>
        <vType accel="1.441" actionStepLength="0.100" carFollowModel="ACC" color="blue" decel="3.284" emergencyDecel="9.000" id="vehCVToCPS37" lcAssertive="0.936" tau="1.196">
            <param key="device.toc.automatedType" value="vehCVToCPS"/>
            <param key="device.toc.manualType" value="vehLVPS"/>
            <param key="has.toc.device" value="true"/>
            <param key="device.toc.mrmDecel" value="3.000"/>
            <param key="device.toc.recoveryRate" value="0.229"/>
            <param key="device.toc.initialAwareness" value="0.485"/>
            <param key="device.toc.useColorScheme" value="true"/>
            <param key="device.toc.responseTime" value="0.000"/>
        </vType>
        <vType accel="0.859" actionStepLength="0.100" carFollowModel="ACC" color="blue" decel="3.612" emergencyDecel="9.000" id="vehCVToCPS38" lcAssertive="0.869" tau="1.176">
            <param key="device.toc.automatedType" value="vehCVToCPS"/>
            <param key="device.toc.manualType" value="vehLVPS"/>
            <param key="has.toc.device" value="true"/>
            <param key="device.toc.mrmDecel" value="3.000"/>
            <param key="device.toc.recoveryRate" value="0.244"/>
            <param key="device.toc.initialAwareness" value="0.529"/>
            <param key="device.toc.useColorScheme" value="true"/>
            <param key="device.toc.responseTime" value="0.000"/>
        </vType>
        <vType accel="0.990" actionStepLength="0.100" carFollowModel="ACC" color="blue" decel="2.426" emergencyDecel="9.000" id="vehCVToCPS39" lcAssertive="0.949" tau="1.176">
            <param key="device.toc.automatedType" value="vehCVToCPS"/>
            <param key="device.toc.manualType" value="vehLVPS"/>
            <param key="has.toc.device" value="true"/>
            <param key="device.toc.mrmDecel" value="3.000"/>
            <param key="device.toc.recoveryRate" value="0.271"/>
            <param key="device.toc.initialAwareness" value="0.102"/>
            <param key="device.toc.useColorScheme" value="true"/>
            <param key="device.toc.responseTime" value="0.000"/>
        </vType>
        <vType accel="1.101" actionStepLength="0.100" carFollowModel="ACC" color="blue" decel="2.597" emergencyDecel="9.000" id="vehCVToCPS40" lcAssertive="0.978" tau="1.184">
            <param key="device.toc.automatedType" value="vehCVToCPS"/>
            <param key="device.toc.manualType" value="vehLVPS"/>
            <param key="has.toc.device" value="true"/>
            <param key="device.toc.mrmDecel" value="3.000"/>
            <param key="device.toc.recoveryRate" value="0.197"/>
            <param key="device.toc.initialAwareness" value="0.118"/>
            <param key="device.toc.useColorScheme" value="true"/>
            <param key="device.toc.responseTime" value="0.000"/>
        </vType>
        <vType accel="0.859" actionStepLength="0.100" carFollowModel="ACC" color="blue" decel="3.945" emergencyDecel="9.000" id="vehCVToCPS41" lcAssertive="0.928" tau="1.217">
            <param key="device.toc.automatedType" value="vehCVToCPS"/>
            <param key="device.toc.manualType" value="vehLVPS"/>
            <param key="has.toc.device" value="true"/>
            <param key="device.toc.mrmDecel" value="3.000"/>
            <param key="device.toc.recoveryRate" value="0.265"/>
            <param key="device.toc.initialAwareness" value="0.145"/>
            <param key="device.toc.useColorScheme" value="true"/>
            <param key="device.toc.responseTime" value="0.000"/>
        </vType>