<additional xmlns:xsi="http://www.w3.org/2001/XMLSchema-instance" xsi:noNamespaceSchemaLocation="http://sumo.dlr.de/xsd/additional_file.xsd">
    <vTypeDistribution id="vehCAVToCPE">
        <vType accel="1.362" actionStepLength="0.100" carFollowModel="ACC" color="white" decel="2.024" emergencyDecel="9.000" id="vehCAVToCPE0" lcAssertive="0.468" tau="1.901">
            <param key="device.toc.automatedType" value="vehCAVToCPE"/>
            <param key="device.toc.manualType" value="vehLVPE"/>
            <param key="has.toc.device" value="true"/>
            <param key="device.toc.mrmDecel" value="3.000"/>
            <param key="device.toc.recoveryRate" value="0.325"/>
            <param key="device.toc.initialAwareness" value="0.470"/>
            <param key="device.toc.useColorScheme" value="true"/>
            <param key="device.toc.responseTime" value="3.497"/>
        </vType>
        <vType accel="1.868" actionStepLength="0.100" carFollowModel="ACC" color="white" decel="2.343" emergencyDecel="9.000" id="vehCAVToCPE1" lcAssertive="0.565" tau="1.907">
            <param key="device.toc.automatedType" value="vehCAVToCPE"/>
            <param key="device.toc.manualType" value="vehLVPE"/>
            <param key="has.toc.device" value="true"/>
            <param key="device.toc.mrmDecel" value="3.000"/>
            <param key="device.toc.recoveryRate" value="0.348"/>
            <param key="device.toc.initialAwareness" value="0.410"/>
            <param key="device.toc.useColorScheme" value="true"/>
            <param key="device.toc.responseTime" value="6.155"/>
        </vType>
        <vType accel="1.068" actionStepLength="0.100" carFollowModel="ACC" color="white" decel="3.942" emergencyDecel="9.000" id="vehCAVToCPE2" lcAssertive="0.446" tau="1.814">
            <param key="device.toc.automatedType" value="vehCAVToCPE"/>
            <param key="device.toc.manualType" value="vehLVPE"/>
            <param key="has.toc.device" value="true"/>
            <param key="device.toc.mrmDecel" value="3.000"/>
            <param key="device.toc.recoveryRate" value="0.231"/>
            <param key="device.toc.initialAwareness" value="0.432"/>
            <param key="device.toc.useColorScheme" value="true"/>
            <param key="device.toc.responseTime" value="10.943"/>
        </vType>
        <vType accel="1.501" actionStepLength="0.100" carFollowModel="ACC" color="white" decel="2.042" emergencyDecel="9.000" id="vehCAVToCPE3" lcAssertive="0.465" tau="1.956">
            <param key="device.toc.automatedType" value="vehCAVToCPE"/>
            <param key="device.toc.manualType" value="vehLVPE"/>
            <param key="has.toc.device" value="true"/>
            <param key="device.toc.mrmDecel" value="3.000"/>
            <param key="device.toc.recoveryRate" value="0.020"/>
            <param key="device.toc.initialAwareness" value="0.366"/>
            <param key="device.toc.useColorScheme" value="true"/>
            <param key="device.toc.responseTime" value="9.933"/>
        </vType>
        <vType accel="1.750" actionStepLength="0.100" carFollowModel="ACC" color="white" decel="2.255" emergencyDecel="9.000" id="vehCAVToCPE4" lcAssertive="0.433" tau="1.981">
            <param key="device.toc.automatedType" value="vehCAVToCPE"/>
            <param key="device.toc.manualType" value="vehLVPE"/>
            <param key="has.toc.device" value="true"/>
            <param key="device.toc.mrmDecel" value="3.000"/>
            <param key="device.toc.recoveryRate" value="0.183"/>
            <param key="device.toc.initialAwareness" value="0.234"/>
            <param key="device.toc.useColorScheme" value="true"/>
            <param key="device.toc.responseTime" value="4.484"/>
        </vType>
        <vType accel="0.935" actionStepLength="0.100" carFollowModel="ACC" color="white" decel="2.782" emergencyDecel="9.000" id="vehCAVToCPE5" lcAssertive="0.475" tau="1.881">
            <param key="device.toc.automatedType" value="vehCAVToCPE"/>
            <param key="device.toc.manualType" value="vehLVPE"/>
            <param key="has.toc.device" value="true"/>
            <param key="device.toc.mrmDecel" value="3.000"/>
            <param key="device.toc.recoveryRate" value="0.064"/>
            <param key="device.toc.initialAwareness" value="0.495"/>
            <param key="device.toc.useColorScheme" value="true"/>
            <param key="device.toc.responseTime" value="3.354"/>
        </vType>
        <vType accel="1.314" actionStepLength="0.100" carFollowModel="ACC" color="white" decel="2.296" emergencyDecel="9.000" id="vehCAVToCPE6" lcAssertive="0.497" tau="1.949">
            <param key="device.toc.automatedType" value="vehCAVToCPE"/>
            <param key="device.toc.manualType" value="vehLVPE"/>
            <param key="has.toc.device" value="true"/>
            <param key="device.toc.mrmDecel" value="3.000"/>
            <param key="device.toc.recoveryRate" value="0.283"/>
            <param key="device.toc.initialAwareness" value="0.327"/>
            <param key="device.toc.useColorScheme" value="true"/>
            <param key="device.toc.responseTime" value="9.153"/>
        </vType>
        <vType accel="1.366" actionStepLength="0.100" carFollowModel="ACC" color="white" decel="3.340" emergencyDecel="9.000" id="vehCAVToCPE7" lcAssertive="0.412" tau="1.964">
            <param key="device.toc.automatedType" value="vehCAVToCPE"/>
            <param key="device.toc.manualType" value="vehLVPE"/>
            <param key="has.toc.device" value="true"/>
            <param key="device.toc.mrmDecel" value="3.000"/>
            <param key="device.toc.recoveryRate" value="0.013"/>
            <param key="device.toc.initialAwareness" value="0.386"/>
            <param key="device.toc.useColorScheme" value="true"/>
            <param key="device.toc.responseTime" value="7.100"/>
        </vType>
        <vType accel="1.926" actionStepLength="0.100" carFollowModel="ACC" color="white" decel="2.667" emergencyDecel="9.000" id="vehCAVToCPE8" lcAssertive="0.542" tau="1.897">
            <param key="device.toc.automatedType" value="vehCAVToCPE"/>
            <param key="device.toc.manualType" value="vehLVPE"/>
            <param key="has.toc.device" value="true"/>
            <param key="device.toc.mrmDecel" value="3.000"/>
            <param key="device.toc.recoveryRate" value="0.289"/>
            <param key="device.toc.initialAwareness" value="0.480"/>
            <param key="device.toc.useColorScheme" value="true"/>
            <param key="device.toc.responseTime" value="4.774"/>
        </vType>
        <vType accel="1.969" actionStepLength="0.100" carFollowModel="ACC" color="white" decel="3.313" emergencyDecel="9.000" id="vehCAVToCPE9" lcAssertive="0.532" tau="1.814">
            <param key="device.toc.automatedType" value="vehCAVToCPE"/>
            <param key="device.toc.manualType" value="vehLVPE"/>
            <param key="has.toc.device" value="true"/>
            <param key="device.toc.mrmDecel" value="3.000"/>
            <param key="device.toc.recoveryRate" value="0.173"/>
            <param key="device.toc.initialAwareness" value="0.238"/>
            <param key="device.toc.useColorScheme" value="true"/>
            <param key="device.toc.responseTime" value="6.456"/>
        </vType>
        <vType accel="0.808" actionStepLength="0.100" carFollowModel="ACC" color="white" decel="3.866" emergencyDecel="9.000" id="vehCAVToCPE10" lcAssertive="0.573" tau="1.975">
            <param key="device.toc.automatedType" value="vehCAVToCPE"/>
            <param key="device.toc.manualType" value="vehLVPE"/>
            <param key="has.toc.device" value="true"/>
            <param key="device.toc.mrmDecel" value="3.000"/>
            <param key="device.toc.recoveryRate" value="0.352"/>
            <param key="device.toc.initialAwareness" value="0.156"/>
            <param key="device.toc.useColorScheme" value="true"/>
            <param key="device.toc.responseTime" value="5.730"/>
        </vType>
        <vType accel="1.904" actionStepLength="0.100" carFollowModel="ACC" color="white" decel="3.571" emergencyDecel="9.000" id="vehCAVToCPE11" lcAssertive="0.524" tau="1.980">
            <param key="device.toc.automatedType" value="vehCAVToCPE"/>
            <param key="device.toc.manualType" value="vehLVPE"/>
            <param key="has.toc.device" value="true"/>
            <param key="device.toc.mrmDecel" value="3.000"/>
            <param key="device.toc.recoveryRate" value="0.266"/>
            <param key="device.toc.initialAwareness" value="0.412"/>
            <param key="device.toc.useColorScheme" value="true"/>
            <param key="device.toc.responseTime" value="5.605"/>
        </vType>
        <vType accel="0.947" actionStepLength="0.100" carFollowModel="ACC" color="white" decel="2.762" emergencyDecel="9.000" id="vehCAVToCPE12" lcAssertive="0.471" tau="1.950">
            <param key="device.toc.automatedType" value="vehCAVToCPE"/>
            <param key="device.toc.manualType" value="vehLVPE"/>
            <param key="has.toc.device" value="true"/>
            <param key="device.toc.mrmDecel" value="3.000"/>
            <param key="device.toc.recoveryRate" value="0.242"/>
            <param key="device.toc.initialAwareness" value="0.839"/>
            <param key="device.toc.useColorScheme" value="true"/>
            <param key="device.toc.responseTime" value="4.734"/>
        </vType>
        <vType accel="1.843" actionStepLength="0.100" carFollowModel="ACC" color="white" decel="3.382" emergencyDecel="9.000" id="vehCAVToCPE13" lcAssertive="0.503" tau="1.975">
            <param key="device.toc.automatedType" value="vehCAVToCPE"/>
            <param key="device.toc.manualType" value="vehLVPE"/>
            <param key="has.toc.device" value="true"/>
            <param key="device.toc.mrmDecel" value="3.000"/>
            <param key="device.toc.recoveryRate" value="0.153"/>
            <param key="device.toc.initialAwareness" value="0.181"/>
            <param key="device.toc.useColorScheme" value="true"/>
            <param key="device.toc.responseTime" value="6.962"/>
        </vType>
        <vType accel="1.441" actionStepLength="0.100" carFollowModel="ACC" color="white" decel="3.953" emergencyDecel="9.000" id="vehCAVToCPE14" lcAssertive="0.442" tau="1.925">
            <param key="device.toc.automatedType" value="vehCAVToCPE"/>
            <param key="device.toc.manualType" value="vehLVPE"/>
            <param key="has.toc.device" value="true"/>
            <param key="device.toc.mrmDecel" value="3.000"/>
            <param key="device.toc.recoveryRate" value="0.373"/>
            <param key="device.toc.initialAwareness" value="0.390"/>
            <param key="device.toc.useColorScheme" value="true"/>
            <param key="device.toc.responseTime" value="3.956"/>
        </vType>
        <vType accel="1.974" actionStepLength="0.100" carFollowModel="ACC" color="white" decel="2.450" emergencyDecel="9.000" id="vehCAVToCPE15" lcAssertive="0.489" tau="1.931">
            <param key="device.toc.automatedType" value="vehCAVToCPE"/>
            <param key="device.toc.manualType" value="vehLVPE"/>
            <param key="has.toc.device" value="true"/>
            <param key="device.toc.mrmDecel" value="3.000"/>
            <param key="device.toc.recoveryRate" value="0.182"/>
            <param key="device.toc.initialAwareness" value="0.360"/>
            <param key="device.toc.useColorScheme" value="true"/>
            <param key="device.toc.responseTime" value="5.157"/>
        </vType>
        <vType accel="1.436" actionStepLength="0.100" carFollowModel="ACC" color="white" decel="3.216" emergencyDecel="9.000" id="vehCAVToCPE16" lcAssertive="0.427" tau="1.825">
            <param key="device.toc.automatedType" value="vehCAVToCPE"/>
            <param key="device.toc.manualType" value="vehLVPE"/>
            <param key="has.toc.device" value="true"/>
            <param key="device.toc.mrmDecel" value="3.000"/>
            <param key="device.toc.recoveryRate" value="0.180"/>
            <param key="device.toc.initialAwareness" value="0.175"/>
            <param key="device.toc.useColorScheme" value="true"/>
            <param key="device.toc.responseTime" value="3.517"/>
        </vType>
        <vType accel="1.640" actionStepLength="0.100" carFollowModel="ACC" color="white" decel="3.480" emergencyDecel="9.000" id="vehCAVToCPE17" lcAssertive="0.588" tau="1.907">
            <param key="device.toc.automatedType" value="vehCAVToCPE"/>
            <param key="device.toc.manualType" value="vehLVPE"/>
            <param key="has.toc.device" value="true"/>
            <param key="device.toc.mrmDecel" value="3.000"/>
            <param key="device.toc.recoveryRate" value="0.318"/>
            <param key="device.toc.initialAwareness" value="0.691"/>
            <param key="device.toc.useColorScheme" value="true"/>
            <param key="device.toc.responseTime" value="8.198"/>
        </vType>
        <vType accel="1.627" actionStepLength="0.100" carFollowModel="ACC" color="white" decel="2.589" emergencyDecel="9.000" id="vehCAVToCPE18" lcAssertive="0.479" tau="1.961">
            <param key="device.toc.automatedType" value="vehCAVToCPE"/>
            <param key="device.toc.manualType" value="vehLVPE"/>
            <param key="has.toc.device" value="true"/>
            <param key="device.toc.mrmDecel" value="3.000"/>
            <param key="device.toc.recoveryRate" value="0.202"/>
            <param key="device.toc.initialAwareness" value="0.560"/>
            <param key="device.toc.useColorScheme" value="true"/>
            <param key="device.toc.responseTime" value="6.534"/>
        </vType>
        <vType accel="1.424" actionStepLength="0.100" carFollowModel="ACC" color="white" decel="2.103" emergencyDecel="9.000" id="vehCAVToCPE19" lcAssertive="0.509" tau="1.984">
            <param key="device.toc.automatedType" value="vehCAVToCPE"/>
            <param key="device.toc.manualType" value="vehLVPE"/>
            <param key="has.toc.device" value="true"/>
            <param key="device.toc.mrmDecel" value="3.000"/>
            <param key="device.toc.recoveryRate" value="0.292"/>
            <param key="device.toc.initialAwareness" value="0.442"/>
            <param key="device.toc.useColorScheme" value="true"/>
            <param key="device.toc.responseTime" value="7.797"/>
        </vType>
        <vType accel="1.759" actionStepLength="0.100" carFollowModel="ACC" color="white" decel="2.311" emergencyDecel="9.000" id="vehCAVToCPE20" lcAssertive="0.459" tau="1.903">
            <param key="device.toc.automatedType" value="vehCAVToCPE"/>
            <param key="device.toc.manualType" value="vehLVPE"/>
            <param key="has.toc.device" value="true"/>
            <param key="device.toc.mrmDecel" value="3.000"/>
            <param key="device.toc.recoveryRate" value="0.140"/>
            <param key="device.toc.initialAwareness" value="0.270"/>
            <param key="device.toc.useColorScheme" value="true"/>
            <param key="device.toc.responseTime" value="12.160"/>
        </vType>
        <vType accel="1.888" actionStepLength="0.100" carFollowModel="ACC" color="white" decel="2.906" emergencyDecel="9.000" id="vehCAVToCPE21" lcAssertive="0.515" tau="1.864">
            <param key="device.toc.automatedType" value="vehCAVToCPE"/>
            <param key="device.toc.manualType" value="vehLVPE"/>
            <param key="has.toc.device" value="true"/>
            <param key="device.toc.mrmDecel" value="3.000"/>
            <param key="device.toc.recoveryRate" value="0.208"/>
            <param key="device.toc.initialAwareness" value="0.735"/>
            <param key="device.toc.useColorScheme" value="true"/>
            <param key="device.toc.responseTime" value="9.766"/>
        </vType>
        <vType accel="0.865" actionStepLength="0.100" carFollowModel="ACC" color="white" decel="3.326" emergencyDecel="9.000" id="vehCAVToCPE22" lcAssertive="0.564" tau="1.859">
            <param key="device.toc.automatedType" value="vehCAVToCPE"/>
            <param key="device.toc.manualType" value="vehLVPE"/>
            <param key="has.toc.device" value="true"/>
            <param key="device.toc.mrmDecel" value="3.000"/>
            <param key="device.toc.recoveryRate" value="0.253"/>
            <param key="device.toc.initialAwareness" value="0.368"/>
            <param key="device.toc.useColorScheme" value="true"/>
            <param key="device.toc.responseTime" value="2.284"/>
        </vType>
        <vType accel="1.086" actionStepLength="0.100" carFollowModel="ACC" color="white" decel="2.988" emergencyDecel="9.000" id="vehCAVToCPE23" lcAssertive="0.540" tau="1.944">
            <param key="device.toc.automatedType" value="vehCAVToCPE"/>
            <param key="device.toc.manualType" value="vehLVPE"/>
            <param key="has.toc.device" value="true"/>
            <param key="device.toc.mrmDecel" value="3.000"/>
            <param key="device.toc.recoveryRate" value="0.477"/>
            <param key="device.toc.initialAwareness" value="0.178"/>
            <param key="device.toc.useColorScheme" value="true"/>
            <param key="device.toc.responseTime" value="11.070"/>
        </vType>
        <vType accel="1.901" actionStepLength="0.100" carFollowModel="ACC" color="white" decel="2.984" emergencyDecel="9.000" id="vehCAVToCPE24" lcAssertive="0.405" tau="1.971">
            <param key="device.toc.automatedType" value="vehCAVToCPE"/>
            <param key="device.toc.manualType" value="vehLVPE"/>
            <param key="has.toc.device" value="true"/>
            <param key="device.toc.mrmDecel" value="3.000"/>
            <param key="device.toc.recoveryRate" value="0.287"/>
            <param key="device.toc.initialAwareness" value="0.183"/>
            <param key="device.toc.useColorScheme" value="true"/>
            <param key="device.toc.responseTime" value="13.155"/>
        </vType>
        <vType accel="1.625" actionStepLength="0.100" carFollowModel="ACC" color="white" decel="2.160" emergencyDecel="9.000" id="vehCAVToCPE25" lcAssertive="0.465" tau="1.977">
            <param key="device.toc.automatedType" value="vehCAVToCPE"/>
            <param key="device.toc.manualType" value="vehLVPE"/>
            <param key="has.toc.device" value="true"/>
            <param key="device.toc.mrmDecel" value="3.000"/>
            <param key="device.toc.recoveryRate" value="0.166"/>
            <param key="device.toc.initialAwareness" value="0.652"/>
            <param key="device.toc.useColorScheme" value="true"/>
            <param key="device.toc.responseTime" value="8.680"/>
        </vType>
        <vType accel="1.643" actionStepLength="0.100" carFollowModel="ACC" color="white" decel="3.074" emergencyDecel="9.000" id="vehCAVToCPE26" lcAssertive="0.510" tau="1.985">
            <param key="device.toc.automatedType" value="vehCAVToCPE"/>
            <param key="device.toc.manualType" value="vehLVPE"/>
            <param key="has.toc.device" value="true"/>
            <param key="device.toc.mrmDecel" value="3.000"/>
            <param key="device.toc.recoveryRate" value="0.314"/>
            <param key="device.toc.initialAwareness" value="0.141"/>
            <param key="device.toc.useColorScheme" value="true"/>
            <param key="device.toc.responseTime" value="6.937"/>
        </vType>
        <vType accel="1.661" actionStepLength="0.100" carFollowModel="ACC" color="white" decel="3.870" emergencyDecel="9.000" id="vehCAVToCPE27" lcAssertive="0.508" tau="1.977">
            <param key="device.toc.automatedType" value="vehCAVToCPE"/>
            <param key="device.toc.manualType" value="vehLVPE"/>
            <param key="has.toc.device" value="true"/>
            <param key="device.toc.mrmDecel" value="3.000"/>
            <param key="device.toc.recoveryRate" value="0.023"/>
            <param key="device.toc.initialAwareness" value="0.770"/>
            <param key="device.toc.useColorScheme" value="true"/>
            <param key="device.toc.responseTime" value="11.903"/>
        </vType>
        <vType accel="1.199" actionStepLength="0.100" carFollowModel="ACC" color="white" decel="3.748" emergencyDecel="9.000" id="vehCAVToCPE28" lcAssertive="0.555" tau="1.820">
            <param key="device.toc.automatedType" value="vehCAVToCPE"/>
            <param key="device.toc.manualType" value="vehLVPE"/>
            <param key="has.toc.device" value="true"/>
            <param key="device.toc.mrmDecel" value="3.000"/>
            <param key="device.toc.recoveryRate" value="0.373"/>
            <param key="device.toc.initialAwareness" value="0.645"/>
            <param key="device.toc.useColorScheme" value="true"/>
            <param key="device.toc.responseTime" value="5.299"/>
        </vType>
        <vType accel="0.858" actionStepLength="0.100" carFollowModel="ACC" color="white" decel="3.414" emergencyDecel="9.000" id="vehCAVToCPE29" lcAssertive="0.411" tau="1.887">
            <param key="device.toc.automatedType" value="vehCAVToCPE"/>
            <param key="device.toc.manualType" value="vehLVPE"/>
            <param key="has.toc.device" value="true"/>
            <param key="device.toc.mrmDecel" value="3.000"/>
            <param key="device.toc.recoveryRate" value="0.095"/>
            <param key="device.toc.initialAwareness" value="0.289"/>
            <param key="device.toc.useColorScheme" value="true"/>
            <param key="device.toc.responseTime" value="7.871"/>
        </vType>
        <vType accel="1.784" actionStepLength="0.100" carFollowModel="ACC" color="white" decel="3.618" emergencyDecel="9.000" id="vehCAVToCPE30" lcAssertive="0.536" tau="1.988">
            <param key="device.toc.automatedType" value="vehCAVToCPE"/>
            <param key="device.toc.manualType" value="vehLVPE"/>
            <param key="has.toc.device" value="true"/>
            <param key="device.toc.mrmDecel" value="3.000"/>
            <param key="device.toc.recoveryRate" value="0.018"/>
            <param key="device.toc.initialAwareness" value="0.628"/>
            <param key="device.toc.useColorScheme" value="true"/>
            <param key="device.toc.responseTime" value="12.068"/>
        </vType>
        <vType accel="0.859" actionStepLength="0.100" carFollowModel="ACC" color="white" decel="3.612" emergencyDecel="9.000" id="vehCAVToCPE31" lcAssertive="0.469" tau="1.952">
            <param key="device.toc.automatedType" value="vehCAVToCPE"/>
            <param key="device.toc.manualType" value="vehLVPE"/>
            <param key="has.toc.device" value="true"/>
            <param key="device.toc.mrmDecel" value="3.000"/>
            <param key="device.toc.recoveryRate" value="0.244"/>
            <param key="device.toc.initialAwareness" value="0.529"/>
            <param key="device.toc.useColorScheme" value="true"/>
            <param key="device.toc.responseTime" value="10.225"/>
        </vType>
        <vType accel="0.990" actionStepLength="0.100" carFollowModel="ACC" color="white" decel="2.426" emergencyDecel="9.000" id="vehCAVToCPE32" lcAssertive="0.549" tau="1.953">
            <param key="device.toc.automatedType" value="vehCAVToCPE"/>
            <param key="device.toc.manualType" value="vehLVPE"/>
            <param key="has.toc.device" value="true"/>
            <param key="device.toc.mrmDecel" value="3.000"/>
            <param key="device.toc.recoveryRate" value="0.271"/>
            <param key="device.toc.initialAwareness" value="0.102"/>
            <param key="device.toc.useColorScheme" value="true"/>
            <param key="device.toc.responseTime" value="3.568"/>
        </vType>
        <vType accel="1.101" actionStepLength="0.100" carFollowModel="ACC" color="white" decel="2.597" emergencyDecel="9.000" id="vehCAVToCPE33" lcAssertive="0.578" tau="1.968">
            <param key="device.toc.automatedType" value="vehCAVToCPE"/>
            <param key="device.toc.manualType" value="vehLVPE"/>
            <param key="has.toc.device" value="true"/>
            <param key="device.toc.mrmDecel" value="3.000"/>
            <param key="device.toc.recoveryRate" value="0.197"/>
            <param key="device.toc.initialAwareness" value="0.118"/>
            <param key="device.toc.useColorScheme" value="true"/>
            <param key="device.toc.responseTime" value="10.285"/>
        </vType>
        <vType accel="0.799" actionStepLength="0.100" carFollowModel="ACC" color="white" decel="2.482" emergencyDecel="9.000" id="vehCAVToCPE34" lcAssertive="0.587" tau="1.872">
            <param key="device.toc.automatedType" value="vehCAVToCPE"/>
            <param key="device.toc.manualType" value="vehLVPE"/>
            <param key="has.toc.device" value="true"/>
            <param key="device.toc.mrmDecel" value="3.000"/>
            <param key="device.toc.recoveryRate" value="0.294"/>
            <param key="device.toc.initialAwareness" value="0.385"/>
            <param key="device.toc.useColorScheme" value="true"/>
            <param key="device.toc.responseTime" value="5.005"/>
        </vType>
        <vType accel="1.596" actionStepLength="0.100" carFollowModel="ACC" color="white" decel="3.201" emergencyDecel="9.000" id="vehCAVToCPE35" lcAssertive="0.489" tau="1.988">
            <param key="device.toc.automatedType" value="vehCAVToCPE"/>
            <param key="device.toc.manualType" value="vehLVPE"/>
            <param key="has.toc.device" value="true"/>
            <param key="device.toc.mrmDecel" value="3.000"/>
            <param key="device.toc.recoveryRate" value="0.263"/>
            <param key="device.toc.initialAwareness" value="0.636"/>
            <param key="device.toc.useColorScheme" value="true"/>
            <param key="device.toc.responseTime" value="8.448"/>
        </vType>
        <vType accel="1.125" actionStepLength="0.100" carFollowModel="ACC" color="white" decel="2.746" emergencyDecel="9.000" id="vehCAVToCPE36" lcAssertive="0.467" tau="1.899">
            <param key="device.toc.automatedType" value="vehCAVToCPE"/>
            <param key="device.toc.manualType" value="vehLVPE"/>
            <param key="has.toc.device" value="true"/>
            <param key="device.toc.mrmDecel" value="3.000"/>
            <param key="device.toc.recoveryRate" value="0.184"/>
            <param key="device.toc.initialAwareness" value="0.662"/>
            <param key="device.toc.useColorScheme" value="true"/>
            <param key="device.toc.responseTime" value="8.015"/>
        </vType>
        <vType accel="1.670" actionStepLength="0.100" carFollowModel="ACC" color="white" decel="3.347" emergencyDecel="9.000" id="vehCAVToCPE37" lcAssertive="0.525" tau="1.850">
            <param key="device.toc.automatedType" value="vehCAVToCPE"/>
            <param key="device.toc.manualType" value="vehLVPE"/>
            <param key="has.toc.device" value="true"/>
            <param key="device.toc.mrmDecel" value="3.000"/>
            <param key="device.toc.recoveryRate" value="0.227"/>
            <param key="device.toc.initialAwareness" value="0.498"/>
            <param key="device.toc.useColorScheme" value="true"/>
            <param key="device.toc.responseTime" value="11.241"/>
        </vType>
        <vType accel="1.302" actionStepLength="0.100" carFollowModel="ACC" color="white" decel="3.236" emergencyDecel="9.000" id="vehCAVToCPE38" lcAssertive="0.420" tau="1.903">
            <param key="device.toc.automatedType" value="vehCAVToCPE"/>
            <param key="device.toc.manualType" value="vehLVPE"/>
            <param key="has.toc.device" value="true"/>
            <param key="device.toc.mrmDecel" value="3.000"/>
            <param key="device.toc.recoveryRate" value="0.250"/>
            <param key="device.toc.initialAwareness" value="0.461"/>
            <param key="device.toc.useColorScheme" value="true"/>
            <param key="device.toc.responseTime" value="6.374"/>
        </vType>
        <vType accel="1.332" actionStepLength="0.100" carFollowModel="ACC" color="white" decel="3.596" emergencyDecel="9.000" id="vehCAVToCPE39" lcAssertive="0.443" tau="1.973">
            <param key="device.toc.automatedType" value="vehCAVToCPE"/>
            <param key="device.toc.manualType" value="vehLVPE"/>
            <param key="has.toc.device" value="true"/>
            <param key="device.toc.mrmDecel" value="3.000"/>
            <param key="device.toc.recoveryRate" value="0.249"/>
            <param key="device.toc.initialAwareness" value="0.390"/>
            <param key="device.toc.useColorScheme" value="true"/>
            <param key="device.toc.responseTime" value="5.655"/>
        </vType>
        <vType accel="1.805" actionStepLength="0.100" carFollowModel="ACC" color="white" decel="3.617" emergencyDecel="9.000" id="vehCAVToCPE40" lcAssertive="0.532" tau="1.875">
            <param key="device.toc.automatedType" value="vehCAVToCPE"/>
            <param key="device.toc.manualType" value="vehLVPE"/>
            <param key="has.toc.device" value="true"/>
            <param key="device.toc.mrmDecel" value="3.000"/>
            <param key="device.toc.recoveryRate" value="0.110"/>
            <param key="device.toc.initialAwareness" value="0.662"/>
            <param key="device.toc.useColorScheme" value="true"/>
            <param key="device.toc.responseTime" value="9.343"/>
        </vType>
        <vType accel="1.824" actionStepLength="0.100" carFollowModel="ACC" color="white" decel="3.925" emergencyDecel="9.000" id="vehCAVToCPE41" lcAssertive="0.530" tau="1.948">
            <param key="device.toc.automatedType" value="vehCAVToCPE"/>
            <param key="device.toc.manualType" value="vehLVPE"/>
            <param key="has.toc.device" value="true"/>
            <param key="device.toc.mrmDecel" value="3.000"/>
            <param key="device.toc.recoveryRate" value="0.159"/>
            <param key="device.toc.initialAwareness" value="0.845"/>