<additional xmlns:xsi="http://www.w3.org/2001/XMLSchema-instance" xsi:noNamespaceSchemaLocation="http://sumo.dlr.de/xsd/additional_file.xsd">
    <vTypeDistribution id="vehCAVToCOE">
        <vType accel="1.362" actionStepLength="0.100" carFollowModel="ACC" color="white" decel="2.024" emergencyDecel="9.000" id="vehCAVToCOE0" lcAssertive="0.868" tau="1.225">
            <param key="device.toc.automatedType" value="vehCAVToCOE"/>
            <param key="device.toc.manualType" value="vehLVOE"/>
            <param key="has.toc.device" value="true"/>
            <param key="device.toc.mrmDecel" value="3.000"/>
            <param key="device.toc.recoveryRate" value="0.150"/>
            <param key="device.toc.initialAwareness" value="0.870"/>
            <param key="device.toc.useColorScheme" value="true"/>
            <param key="device.toc.responseTime" value="4.548"/>
        </vType>
        <vType accel="1.868" actionStepLength="0.100" carFollowModel="ACC" color="white" decel="2.343" emergencyDecel="9.000" id="vehCAVToCOE1" lcAssertive="0.937" tau="1.153">
            <param key="device.toc.automatedType" value="vehCAVToCOE"/>
            <param key="device.toc.manualType" value="vehLVOE"/>
            <param key="has.toc.device" value="true"/>
            <param key="device.toc.mrmDecel" value="3.000"/>
            <param key="device.toc.recoveryRate" value="0.348"/>
            <param key="device.toc.initialAwareness" value="0.418"/>
            <param key="device.toc.useColorScheme" value="true"/>
            <param key="device.toc.responseTime" value="5.009"/>
        </vType>
        <vType accel="1.810" actionStepLength="0.100" carFollowModel="ACC" color="white" decel="2.568" emergencyDecel="9.000" id="vehCAVToCOE2" lcAssertive="0.846" tau="1.172">
            <param key="device.toc.automatedType" value="vehCAVToCOE"/>
            <param key="device.toc.manualType" value="vehLVOE"/>
            <param key="has.toc.device" value="true"/>
            <param key="device.toc.mrmDecel" value="3.000"/>
            <param key="device.toc.recoveryRate" value="0.265"/>
            <param key="device.toc.initialAwareness" value="0.983"/>
            <param key="device.toc.useColorScheme" value="true"/>
            <param key="device.toc.responseTime" value="7.927"/>
        </vType>
        <vType accel="1.279" actionStepLength="0.100" carFollowModel="ACC" color="white" decel="3.867" emergencyDecel="9.000" id="vehCAVToCOE3" lcAssertive="0.988" tau="1.214">
            <param key="device.toc.automatedType" value="vehCAVToCOE"/>
            <param key="device.toc.manualType" value="vehLVOE"/>
            <param key="has.toc.device" value="true"/>
            <param key="device.toc.mrmDecel" value="3.000"/>
            <param key="device.toc.recoveryRate" value="0.342"/>
            <param key="device.toc.initialAwareness" value="0.337"/>
            <param key="device.toc.useColorScheme" value="true"/>
            <param key="device.toc.responseTime" value="8.414"/>
        </vType>
        <vType accel="1.721" actionStepLength="0.100" carFollowModel="ACC" color="white" decel="3.978" emergencyDecel="9.000" id="vehCAVToCOE4" lcAssertive="0.952" tau="1.200">
            <param key="device.toc.automatedType" value="vehCAVToCOE"/>
            <param key="device.toc.manualType" value="vehLVOE"/>
            <param key="has.toc.device" value="true"/>
            <param key="device.toc.mrmDecel" value="3.000"/>
            <param key="device.toc.recoveryRate" value="0.104"/>
            <param key="device.toc.initialAwareness" value="0.595"/>
            <param key="device.toc.useColorScheme" value="true"/>
            <param key="device.toc.responseTime" value="4.096"/>
        </vType>
        <vType accel="1.750" actionStepLength="0.100" carFollowModel="ACC" color="white" decel="2.255" emergencyDecel="9.000" id="vehCAVToCOE5" lcAssertive="0.833" tau="1.191">
            <param key="device.toc.automatedType" value="vehCAVToCOE"/>
            <param key="device.toc.manualType" value="vehLVOE"/>
            <param key="has.toc.device" value="true"/>
            <param key="device.toc.mrmDecel" value="3.000"/>
            <param key="device.toc.recoveryRate" value="0.183"/>
            <param key="device.toc.initialAwareness" value="0.634"/>
            <param key="device.toc.useColorScheme" value="true"/>
            <param key="device.toc.responseTime" value="5.239"/>
        </vType>
        <vType accel="0.935" actionStepLength="0.100" carFollowModel="ACC" color="white" decel="2.782" emergencyDecel="9.000" id="vehCAVToCOE6" lcAssertive="0.875" tau="1.141">
            <param key="device.toc.automatedType" value="vehCAVToCOE"/>
            <param key="device.toc.manualType" value="vehLVOE"/>
            <param key="has.toc.device" value="true"/>
            <param key="device.toc.mrmDecel" value="3.000"/>
            <param key="device.toc.recoveryRate" value="0.064"/>
            <param key="device.toc.initialAwareness" value="0.895"/>
            <param key="device.toc.useColorScheme" value="true"/>
            <param key="device.toc.responseTime" value="4.448"/>
        </vType>
        <vType accel="1.314" actionStepLength="0.100" carFollowModel="ACC" color="white" decel="2.296" emergencyDecel="9.000" id="vehCAVToCOE7" lcAssertive="0.897" tau="1.175">
            <param key="device.toc.automatedType" value="vehCAVToCOE"/>
            <param key="device.toc.manualType" value="vehLVOE"/>
            <param key="has.toc.device" value="true"/>
            <param key="device.toc.mrmDecel" value="3.000"/>
            <param key="device.toc.recoveryRate" value="0.283"/>
            <param key="device.toc.initialAwareness" value="0.727"/>
            <param key="device.toc.useColorScheme" value="true"/>
            <param key="device.toc.responseTime" value="8.507"/>
        </vType>
        <vType accel="1.366" actionStepLength="0.100" carFollowModel="ACC" color="white" decel="3.340" emergencyDecel="9.000" id="vehCAVToCOE8" lcAssertive="0.903" tau="1.182">
            <param key="device.toc.automatedType" value="vehCAVToCOE"/>
            <param key="device.toc.manualType" value="vehLVOE"/>
            <param key="has.toc.device" value="true"/>
            <param key="device.toc.mrmDecel" value="3.000"/>
            <param key="device.toc.recoveryRate" value="0.013"/>
            <param key="device.toc.initialAwareness" value="0.447"/>
            <param key="device.toc.useColorScheme" value="true"/>
            <param key="device.toc.responseTime" value="7.603"/>
        </vType>
        <vType accel="0.984" actionStepLength="0.100" carFollowModel="ACC" color="white" decel="3.888" emergencyDecel="9.000" id="vehCAVToCOE9" lcAssertive="0.960" tau="1.112">
            <param key="device.toc.automatedType" value="vehCAVToCOE"/>
            <param key="device.toc.manualType" value="vehLVOE"/>
            <param key="has.toc.device" value="true"/>
            <param key="device.toc.mrmDecel" value="3.000"/>
            <param key="device.toc.recoveryRate" value="0.250"/>
            <param key="device.toc.initialAwareness" value="0.828"/>
            <param key="device.toc.useColorScheme" value="true"/>
            <param key="device.toc.responseTime" value="6.301"/>
        </vType>
        <vType accel="1.234" actionStepLength="0.100" carFollowModel="ACC" color="white" decel="3.776" emergencyDecel="9.000" id="vehCAVToCOE10" lcAssertive="0.947" tau="1.126">
            <param key="device.toc.automatedType" value="vehCAVToCOE"/>
            <param key="device.toc.manualType" value="vehLVOE"/>
            <param key="has.toc.device" value="true"/>
            <param key="device.toc.mrmDecel" value="3.000"/>
            <param key="device.toc.recoveryRate" value="0.242"/>
            <param key="device.toc.initialAwareness" value="0.247"/>
            <param key="device.toc.useColorScheme" value="true"/>
            <param key="device.toc.responseTime" value="4.925"/>
        </vType>
        <vType accel="1.319" actionStepLength="0.100" carFollowModel="ACC" color="white" decel="3.319" emergencyDecel="9.000" id="vehCAVToCOE11" lcAssertive="0.831" tau="1.231">
            <param key="device.toc.automatedType" value="vehCAVToCOE"/>
            <param key="device.toc.manualType" value="vehLVOE"/>
            <param key="has.toc.device" value="true"/>
            <param key="device.toc.mrmDecel" value="3.000"/>
            <param key="device.toc.recoveryRate" value="0.179"/>
            <param key="device.toc.initialAwareness" value="0.977"/>
            <param key="device.toc.useColorScheme" value="true"/>
            <param key="device.toc.responseTime" value="6.737"/>
        </vType>
        <vType accel="1.077" actionStepLength="0.100" carFollowModel="ACC" color="white" decel="3.727" emergencyDecel="9.000" id="vehCAVToCOE12" lcAssertive="0.966" tau="1.287">
            <param key="device.toc.automatedType" value="vehCAVToCOE"/>
            <param key="device.toc.manualType" value="vehLVOE"/>
            <param key="has.toc.device" value="true"/>
            <param key="device.toc.mrmDecel" value="3.000"/>
            <param key="device.toc.recoveryRate" value="0.152"/>
            <param key="device.toc.initialAwareness" value="0.866"/>
            <param key="device.toc.useColorScheme" value="true"/>
            <param key="device.toc.responseTime" value="6.794"/>
        </vType>
        <vType accel="1.873" actionStepLength="0.100" carFollowModel="ACC" color="white" decel="2.535" emergencyDecel="9.000" id="vehCAVToCOE13" lcAssertive="0.875" tau="1.240">
            <param key="device.toc.automatedType" value="vehCAVToCOE"/>
            <param key="device.toc.manualType" value="vehLVOE"/>
            <param key="has.toc.device" value="true"/>
            <param key="device.toc.mrmDecel" value="3.000"/>
            <param key="device.toc.recoveryRate" value="0.308"/>
            <param key="device.toc.initialAwareness" value="0.267"/>
            <param key="device.toc.useColorScheme" value="true"/>
            <param key="device.toc.responseTime" value="7.494"/>
        </vType>
        <vType accel="0.947" actionStepLength="0.100" carFollowModel="ACC" color="white" decel="2.762" emergencyDecel="9.000" id="vehCAVToCOE14" lcAssertive="0.824" tau="1.242">
            <param key="device.toc.automatedType" value="vehCAVToCOE"/>
            <param key="device.toc.manualType" value="vehLVOE"/>
            <param key="has.toc.device" value="true"/>
            <param key="device.toc.mrmDecel" value="3.000"/>
            <param key="device.toc.recoveryRate" value="0.254"/>
            <param key="device.toc.initialAwareness" value="0.369"/>
            <param key="device.toc.useColorScheme" value="true"/>
            <param key="device.toc.responseTime" value="10.774"/>
        </vType>
        <vType accel="1.374" actionStepLength="0.100" carFollowModel="ACC" color="white" decel="2.535" emergencyDecel="9.000" id="vehCAVToCOE15" lcAssertive="0.934" tau="1.171">
            <param key="device.toc.automatedType" value="vehCAVToCOE"/>
            <param key="device.toc.manualType" value="vehLVOE"/>
            <param key="has.toc.device" value="true"/>
            <param key="device.toc.mrmDecel" value="3.000"/>
            <param key="device.toc.recoveryRate" value="0.250"/>
            <param key="device.toc.initialAwareness" value="0.883"/>
            <param key="device.toc.useColorScheme" value="true"/>
            <param key="device.toc.responseTime" value="3.913"/>
        </vType>
        <vType accel="1.104" actionStepLength="0.100" carFollowModel="ACC" color="white" decel="2.987" emergencyDecel="9.000" id="vehCAVToCOE16" lcAssertive="0.862" tau="1.238">
            <param key="device.toc.automatedType" value="vehCAVToCOE"/>
            <param key="device.toc.manualType" value="vehLVOE"/>
            <param key="has.toc.device" value="true"/>
            <param key="device.toc.mrmDecel" value="3.000"/>
            <param key="device.toc.recoveryRate" value="0.117"/>
            <param key="device.toc.initialAwareness" value="0.348"/>
            <param key="device.toc.useColorScheme" value="true"/>
            <param key="device.toc.responseTime" value="7.068"/>
        </vType>
        <vType accel="1.441" actionStepLength="0.100" carFollowModel="ACC" color="white" decel="3.953" emergencyDecel="9.000" id="vehCAVToCOE17" lcAssertive="0.842" tau="1.276">
            <param key="device.toc.automatedType" value="vehCAVToCOE"/>
            <param key="device.toc.manualType" value="vehLVOE"/>
            <param key="has.toc.device" value="true"/>
            <param key="device.toc.mrmDecel" value="3.000"/>
            <param key="device.toc.recoveryRate" value="0.325"/>
            <param key="device.toc.initialAwareness" value="0.790"/>
            <param key="device.toc.useColorScheme" value="true"/>
            <param key="device.toc.responseTime" value="4.869"/>
        </vType>
        <vType accel="1.878" actionStepLength="0.100" carFollowModel="ACC" color="white" decel="2.653" emergencyDecel="9.000" id="vehCAVToCOE18" lcAssertive="0.947" tau="1.208">
            <param key="device.toc.automatedType" value="vehCAVToCOE"/>
            <param key="device.toc.manualType" value="vehLVOE"/>
            <param key="has.toc.device" value="true"/>
            <param key="device.toc.mrmDecel" value="3.000"/>
            <param key="device.toc.recoveryRate" value="0.049"/>
            <param key="device.toc.initialAwareness" value="0.645"/>
            <param key="device.toc.useColorScheme" value="true"/>
            <param key="device.toc.responseTime" value="3.977"/>
        </vType>
        <vType accel="0.886" actionStepLength="0.100" carFollowModel="ACC" color="white" decel="2.887" emergencyDecel="9.000" id="vehCAVToCOE19" lcAssertive="0.894" tau="1.145">
            <param key="device.toc.automatedType" value="vehCAVToCOE"/>
            <param key="device.toc.manualType" value="vehLVOE"/>
            <param key="has.toc.device" value="true"/>
            <param key="device.toc.mrmDecel" value="3.000"/>
            <param key="device.toc.recoveryRate" value="0.220"/>
            <param key="device.toc.initialAwareness" value="0.437"/>
            <param key="device.toc.useColorScheme" value="true"/>
            <param key="device.toc.responseTime" value="6.587"/>
        </vType>
        <vType accel="0.765" actionStepLength="0.100" carFollowModel="ACC" color="white" decel="3.722" emergencyDecel="9.000" id="vehCAVToCOE20" lcAssertive="0.914" tau="1.222">
            <param key="device.toc.automatedType" value="vehCAVToCOE"/>
            <param key="device.toc.manualType" value="vehLVOE"/>
            <param key="has.toc.device" value="true"/>
            <param key="device.toc.mrmDecel" value="3.000"/>
            <param key="device.toc.recoveryRate" value="0.158"/>
            <param key="device.toc.initialAwareness" value="0.561"/>
            <param key="device.toc.useColorScheme" value="true"/>
            <param key="device.toc.responseTime" value="9.473"/>
        </vType>
        <vType accel="1.899" actionStepLength="0.100" carFollowModel="ACC" color="white" decel="3.877" emergencyDecel="9.000" id="vehCAVToCOE21" lcAssertive="0.902" tau="1.248">
            <param key="device.toc.automatedType" value="vehCAVToCOE"/>
            <param key="device.toc.manualType" value="vehLVOE"/>
            <param key="has.toc.device" value="true"/>
            <param key="device.toc.mrmDecel" value="3.000"/>
            <param key="device.toc.recoveryRate" value="0.100"/>
            <param key="device.toc.initialAwareness" value="0.923"/>
            <param key="device.toc.useColorScheme" value="true"/>
            <param key="device.toc.responseTime" value="6.590"/>
        </vType>
        <vType accel="1.089" actionStepLength="0.100" carFollowModel="ACC" color="white" decel="3.866" emergencyDecel="9.000" id="vehCAVToCOE22" lcAssertive="0.974" tau="1.263">
            <param key="device.toc.automatedType" value="vehCAVToCOE"/>
            <param key="device.toc.manualType" value="vehLVOE"/>
            <param key="has.toc.device" value="true"/>
            <param key="device.toc.mrmDecel" value="3.000"/>
            <param key="device.toc.recoveryRate" value="0.213"/>
            <param key="device.toc.initialAwareness" value="0.653"/>
            <param key="device.toc.useColorScheme" value="true"/>
            <param key="device.toc.responseTime" value="6.551"/>
        </vType>
        <vType accel="1.424" actionStepLength="0.100" carFollowModel="ACC" color="white" decel="2.103" emergencyDecel="9.000" id="vehCAVToCOE23" lcAssertive="0.909" tau="1.248">
            <param key="device.toc.automatedType" value="vehCAVToCOE"/>
            <param key="device.toc.manualType" value="vehLVOE"/>
            <param key="has.toc.device" value="true"/>
            <param key="device.toc.mrmDecel" value="3.000"/>
            <param key="device.toc.recoveryRate" value="0.192"/>
            <param key="device.toc.initialAwareness" value="0.842"/>
            <param key="device.toc.useColorScheme" value="true"/>
            <param key="device.toc.responseTime" value="7.558"/>
        </vType>
        <vType accel="1.015" actionStepLength="0.100" carFollowModel="ACC" color="white" decel="2.401" emergencyDecel="9.000" id="vehCAVToCOE24" lcAssertive="0.890" tau="1.263">
            <param key="device.toc.automatedType" value="vehCAVToCOE"/>
            <param key="device.toc.manualType" value="vehLVOE"/>
            <param key="has.toc.device" value="true"/>
            <param key="device.toc.mrmDecel" value="3.000"/>
            <param key="device.toc.recoveryRate" value="0.248"/>
            <param key="device.toc.initialAwareness" value="0.778"/>
            <param key="device.toc.useColorScheme" value="true"/>
            <param key="device.toc.responseTime" value="5.553"/>
        </vType>
        <vType accel="1.581" actionStepLength="0.100" carFollowModel="ACC" color="white" decel="3.388" emergencyDecel="9.000" id="vehCAVToCOE25" lcAssertive="0.992" tau="1.159">
            <param key="device.toc.automatedType" value="vehCAVToCOE"/>
            <param key="device.toc.manualType" value="vehLVOE"/>
            <param key="has.toc.device" value="true"/>
            <param key="device.toc.mrmDecel" value="3.000"/>
            <param key="device.toc.recoveryRate" value="0.132"/>
            <param key="device.toc.initialAwareness" value="0.672"/>
            <param key="device.toc.useColorScheme" value="true"/>
            <param key="device.toc.responseTime" value="10.042"/>
        </vType>
        <vType accel="1.570" actionStepLength="0.100" carFollowModel="ACC" color="white" decel="2.297" emergencyDecel="9.000" id="vehCAVToCOE26" lcAssertive="0.933" tau="1.215">
            <param key="device.toc.automatedType" value="vehCAVToCOE"/>
            <param key="device.toc.manualType" value="vehLVOE"/>
            <param key="has.toc.device" value="true"/>
            <param key="device.toc.mrmDecel" value="3.000"/>
            <param key="device.toc.recoveryRate" value="0.315"/>
            <param key="device.toc.initialAwareness" value="0.860"/>
            <param key="device.toc.useColorScheme" value="true"/>
            <param key="device.toc.responseTime" value="5.666"/>
        </vType>
        <vType accel="1.218" actionStepLength="0.100" carFollowModel="ACC" color="white" decel="2.172" emergencyDecel="9.000" id="vehCAVToCOE27" lcAssertive="0.899" tau="1.223">
            <param key="device.toc.automatedType" value="vehCAVToCOE"/>
            <param key="device.toc.manualType" value="vehLVOE"/>
            <param key="has.toc.device" value="true"/>
            <param key="device.toc.mrmDecel" value="3.000"/>
            <param key="device.toc.recoveryRate" value="0.043"/>
            <param key="device.toc.initialAwareness" value="0.997"/>
            <param key="device.toc.useColorScheme" value="true"/>
            <param key="device.toc.responseTime" value="6.130"/>
        </vType>
        <vType accel="1.905" actionStepLength="0.100" carFollowModel="ACC" color="white" decel="2.855" emergencyDecel="9.000" id="vehCAVToCOE28" lcAssertive="0.898" tau="1.159">
            <param key="device.toc.automatedType" value="vehCAVToCOE"/>
            <param key="device.toc.manualType" value="vehLVOE"/>
            <param key="has.toc.device" value="true"/>
            <param key="device.toc.mrmDecel" value="3.000"/>
            <param key="device.toc.recoveryRate" value="0.336"/>
            <param key="device.toc.initialAwareness" value="0.962"/>
            <param key="device.toc.useColorScheme" value="true"/>
            <param key="device.toc.responseTime" value="7.842"/>
        </vType>
        <vType accel="1.387" actionStepLength="0.100" carFollowModel="ACC" color="white" decel="2.661" emergencyDecel="9.000" id="vehCAVToCOE29" lcAssertive="0.956" tau="1.161">
            <param key="device.toc.automatedType" value="vehCAVToCOE"/>
            <param key="device.toc.manualType" value="vehLVOE"/>
            <param key="has.toc.device" value="true"/>
            <param key="device.toc.mrmDecel" value="3.000"/>
            <param key="device.toc.recoveryRate" value="0.405"/>
            <param key="device.toc.initialAwareness" value="0.737"/>
            <param key="device.toc.useColorScheme" value="true"/>
            <param key="device.toc.responseTime" value="5.236"/>
        </vType>
        <vType accel="1.599" actionStepLength="0.100" carFollowModel="ACC" color="white" decel="2.925" emergencyDecel="9.000" id="vehCAVToCOE30" lcAssertive="0.914" tau="1.165">
            <param key="device.toc.automatedType" value="vehCAVToCOE"/>
            <param key="device.toc.manualType" value="vehLVOE"/>
            <param key="has.toc.device" value="true"/>
            <param key="device.toc.mrmDecel" value="3.000"/>
            <param key="device.toc.recoveryRate" value="0.225"/>
            <param key="device.toc.initialAwareness" value="0.927"/>
            <param key="device.toc.useColorScheme" value="true"/>
            <param key="device.toc.responseTime" value="2.061"/>
        </vType>
        <vType accel="1.479" actionStepLength="0.100" carFollowModel="ACC" color="white" decel="3.101" emergencyDecel="9.000" id="vehCAVToCOE31" lcAssertive="0.916" tau="1.207">
            <param key="device.toc.automatedType" value="vehCAVToCOE"/>
            <param key="device.toc.manualType" value="vehLVOE"/>
            <param key="has.toc.device" value="true"/>
            <param key="device.toc.mrmDecel" value="3.000"/>
            <param key="device.toc.recoveryRate" value="0.147"/>
            <param key="device.toc.initialAwareness" value="0.759"/>
            <param key="device.toc.useColorScheme" value="true"/>
            <param key="device.toc.responseTime" value="6.763"/>
        </vType>
        <vType accel="1.582" actionStepLength="0.100" carFollowModel="ACC" color="white" decel="3.647" emergencyDecel="9.000" id="vehCAVToCOE32" lcAssertive="0.810" tau="1.287">
            <param key="device.toc.automatedType" value="vehCAVToCOE"/>
            <param key="device.toc.manualType" value="vehLVOE"/>
            <param key="has.toc.device" value="true"/>
            <param key="device.toc.mrmDecel" value="3.000"/>
            <param key="device.toc.recoveryRate" value="0.357"/>
            <param key="device.toc.initialAwareness" value="0.794"/>
            <param key="device.toc.useColorScheme" value="true"/>
            <param key="device.toc.responseTime" value="3.431"/>
        </vType>
        <vType accel="0.933" actionStepLength="0.100" carFollowModel="ACC" color="white" decel="3.545" emergencyDecel="9.000" id="vehCAVToCOE33" lcAssertive="0.836" tau="1.170">
            <param key="device.toc.automatedType" value="vehCAVToCOE"/>
            <param key="device.toc.manualType" value="vehLVOE"/>
            <param key="has.toc.device" value="true"/>
            <param key="device.toc.mrmDecel" value="3.000"/>
            <param key="device.toc.recoveryRate" value="0.356"/>
            <param key="device.toc.initialAwareness" value="0.359"/>
            <param key="device.toc.useColorScheme" value="true"/>
            <param key="device.toc.responseTime" value="5.810"/>
        </vType>
        <vType accel="1.462" actionStepLength="0.100" carFollowModel="ACC" color="white" decel="3.290" emergencyDecel="9.000" id="vehCAVToCOE34" lcAssertive="0.894" tau="1.241">
            <param key="device.toc.automatedType" value="vehCAVToCOE"/>
            <param key="device.toc.manualType" value="vehLVOE"/>
            <param key="has.toc.device" value="true"/>
            <param key="device.toc.mrmDecel" value="3.000"/>
            <param key="device.toc.recoveryRate" value="0.116"/>
            <param key="device.toc.initialAwareness" value="0.433"/>
            <param key="device.toc.useColorScheme" value="true"/>
            <param key="device.toc.responseTime" value="9.622"/>
        </vType>
        <vType accel="1.863" actionStepLength="0.100" carFollowModel="ACC" color="white" decel="2.759" emergencyDecel="9.000" id="vehCAVToCOE35" lcAssertive="0.836" tau="1.228">
            <param key="device.toc.automatedType" value="vehCAVToCOE"/>
            <param key="device.toc.manualType" value="vehLVOE"/>
            <param key="has.toc.device" value="true"/>
            <param key="device.toc.mrmDecel" value="3.000"/>
            <param key="device.toc.recoveryRate" value="0.262"/>
            <param key="device.toc.initialAwareness" value="0.831"/>
            <param key="device.toc.useColorScheme" value="true"/>
            <param key="device.toc.responseTime" value="4.077"/>
        </vType>
        <vType accel="1.187" actionStepLength="0.100" carFollowModel="ACC" color="white" decel="2.763" emergencyDecel="9.000" id="vehCAVToCOE36" lcAssertive="0.849" tau="1.261">
            <param key="device.toc.automatedType" value="vehCAVToCOE"/>
            <param key="device.toc.manualType" value="vehLVOE"/>
            <param key="has.toc.device" value="true"/>
            <param key="device.toc.mrmDecel" value="3.000"/>
            <param key="device.toc.recoveryRate" value="0.276"/>
            <param key="device.toc.initialAwareness" value="0.914"/>
            <param key="device.toc.useColorScheme" value="true"/>
            <param key="device.toc.responseTime" value="5.158"/>
        </vType>
        <vType accel="1.992" actionStepLength="0.100" carFollowModel="ACC" color="white" decel="2.838" emergencyDecel="9.000" id="vehCAVToCOE37" lcAssertive="0.860" tau="1.143">
            <param key="device.toc.automatedType" value="vehCAVToCOE"/>
            <param key="device.toc.manualType" value="vehLVOE"/>
            <param key="has.toc.device" value="true"/>
            <param key="device.toc.mrmDecel" value="3.000"/>
            <param key="device.toc.recoveryRate" value="0.134"/>
            <param key="device.toc.initialAwareness" value="0.691"/>
            <param key="device.toc.useColorScheme" value="true"/>
            <param key="device.toc.responseTime" value="6.162"/>
        </vType>
        <vType accel="1.670" actionStepLength="0.100" carFollowModel="ACC" color="white" decel="3.650" emergencyDecel="9.000" id="vehCAVToCOE38" lcAssertive="0.994" tau="1.139">
            <param key="device.toc.automatedType" value="vehCAVToCOE"/>
            <param key="device.toc.manualType" value="vehLVOE"/>
            <param key="has.toc.device" value="true"/>
            <param key="device.toc.mrmDecel" value="3.000"/>
            <param key="device.toc.recoveryRate" value="0.309"/>
            <param key="device.toc.initialAwareness" value="0.258"/>
            <param key="device.toc.useColorScheme" value="true"/>
            <param key="device.toc.responseTime" value="5.654"/>
        </vType>
        <vType accel="1.784" actionStepLength="0.100" carFollowModel="ACC" color="white" decel="2.335" emergencyDecel="9.000" id="vehCAVToCOE39" lcAssertive="0.998" tau="1.130">
            <param key="device.toc.automatedType" value="vehCAVToCOE"/>
            <param key="device.toc.manualType" value="vehLVOE"/>
            <param key="has.toc.device" value="true"/>
            <param key="device.toc.mrmDecel" value="3.000"/>
            <param key="device.toc.recoveryRate" value="0.148"/>
            <param key="device.toc.initialAwareness" value="0.962"/>
            <param key="device.toc.useColorScheme" value="true"/>
            <param key="device.toc.responseTime" value="8.690"/>
        </vType>
        <vType accel="1.596" actionStepLength="0.100" carFollowModel="ACC" color="white" decel="3.201" emergencyDecel="9.000" id="vehCAVToCOE40" lcAssertive="0.849" tau="1.207">
            <param key="device.toc.automatedType" value="vehCAVToCOE"/>
            <param key="device.toc.manualType" value="vehLVOE"/>
            <param key="has.toc.device" value="true"/>
            <param key="device.toc.mrmDecel" value="3.000"/>
            <param key="device.toc.recoveryRate" value="0.194"/>
            <param key="device.toc.initialAwareness" value="0.845"/>
            <param key="device.toc.useColorScheme" value="true"/>
            <param key="device.toc.responseTime" value="6.774"/>
        </vType>
        <vType accel="1.246" actionStepLength="0.100" carFollowModel="ACC" color="white" decel="3.338" emergencyDecel="9.000" id="vehCAVToCOE41" lcAssertive="0.927" tau="1.184">
            <param key="device.toc.automatedType" value="vehCAVToCOE"/>
            <param key="device.toc.manualType" value="vehLVOE"/>
            <param key="has.toc.device" value="true"/>
            <param key="device.toc.mrmDecel" value="3.000"/>
            <param key="device.toc.recoveryRate" value="0.162"/>
            <param key="device.toc.initialAwareness" value="0.600"/>