<additional xmlns:xsi="http://www.w3.org/2001/XMLSchema-instance" xsi:noNamespaceSchemaLocation="http://sumo.dlr.de/xsd/additional_file.xsd">
    <vTypeDistribution id="vehCAVToCMSE">
        <vType accel="1.362" actionStepLength="0.100" carFollowModel="ACC" color="white" decel="2.024" emergencyDecel="9.000" id="vehCAVToCMSE0" lcAssertive="0.668" tau="1.649">
            <param key="device.toc.automatedType" value="vehCAVToCMSE"/>
            <param key="device.toc.manualType" value="vehLVMSE"/>
            <param key="has.toc.device" value="true"/>
            <param key="device.toc.mrmDecel" value="3.000"/>
            <param key="device.toc.recoveryRate" value="0.150"/>
            <param key="device.toc.initialAwareness" value="0.670"/>
            <param key="device.toc.useColorScheme" value="true"/>
            <param key="device.toc.responseTime" value="4.081"/>
        </vType>
        <vType accel="1.868" actionStepLength="0.100" carFollowModel="ACC" color="white" decel="2.343" emergencyDecel="9.000" id="vehCAVToCMSE1" lcAssertive="0.737" tau="1.507">
            <param key="device.toc.automatedType" value="vehCAVToCMSE"/>
            <param key="device.toc.manualType" value="vehLVMSE"/>
            <param key="has.toc.device" value="true"/>
            <param key="device.toc.mrmDecel" value="3.000"/>
            <param key="device.toc.recoveryRate" value="0.348"/>
            <param key="device.toc.initialAwareness" value="0.218"/>
            <param key="device.toc.useColorScheme" value="true"/>
            <param key="device.toc.responseTime" value="4.630"/>
        </vType>
        <vType accel="1.810" actionStepLength="0.100" carFollowModel="ACC" color="white" decel="2.568" emergencyDecel="9.000" id="vehCAVToCMSE2" lcAssertive="0.646" tau="1.544">
            <param key="device.toc.automatedType" value="vehCAVToCMSE"/>
            <param key="device.toc.manualType" value="vehLVMSE"/>
            <param key="has.toc.device" value="true"/>
            <param key="device.toc.mrmDecel" value="3.000"/>
            <param key="device.toc.recoveryRate" value="0.265"/>
            <param key="device.toc.initialAwareness" value="0.783"/>
            <param key="device.toc.useColorScheme" value="true"/>
            <param key="device.toc.responseTime" value="8.103"/>
        </vType>
        <vType accel="1.279" actionStepLength="0.100" carFollowModel="ACC" color="white" decel="3.867" emergencyDecel="9.000" id="vehCAVToCMSE3" lcAssertive="0.788" tau="1.629">
            <param key="device.toc.automatedType" value="vehCAVToCMSE"/>
            <param key="device.toc.manualType" value="vehLVMSE"/>
            <param key="has.toc.device" value="true"/>
            <param key="device.toc.mrmDecel" value="3.000"/>
            <param key="device.toc.recoveryRate" value="0.342"/>
            <param key="device.toc.initialAwareness" value="0.137"/>
            <param key="device.toc.useColorScheme" value="true"/>
            <param key="device.toc.responseTime" value="8.683"/>
        </vType>
        <vType accel="1.721" actionStepLength="0.100" carFollowModel="ACC" color="white" decel="3.978" emergencyDecel="9.000" id="vehCAVToCMSE4" lcAssertive="0.752" tau="1.600">
            <param key="device.toc.automatedType" value="vehCAVToCMSE"/>
            <param key="device.toc.manualType" value="vehLVMSE"/>
            <param key="has.toc.device" value="true"/>
            <param key="device.toc.mrmDecel" value="3.000"/>
            <param key="device.toc.recoveryRate" value="0.104"/>
            <param key="device.toc.initialAwareness" value="0.805"/>
            <param key="device.toc.useColorScheme" value="true"/>
            <param key="device.toc.responseTime" value="6.124"/>
        </vType>
        <vType accel="1.750" actionStepLength="0.100" carFollowModel="ACC" color="white" decel="2.255" emergencyDecel="9.000" id="vehCAVToCMSE5" lcAssertive="0.633" tau="1.581">
            <param key="device.toc.automatedType" value="vehCAVToCMSE"/>
            <param key="device.toc.manualType" value="vehLVMSE"/>
            <param key="has.toc.device" value="true"/>
            <param key="device.toc.mrmDecel" value="3.000"/>
            <param key="device.toc.recoveryRate" value="0.183"/>
            <param key="device.toc.initialAwareness" value="0.434"/>
            <param key="device.toc.useColorScheme" value="true"/>
            <param key="device.toc.responseTime" value="4.903"/>
        </vType>
        <vType accel="0.935" actionStepLength="0.100" carFollowModel="ACC" color="white" decel="2.782" emergencyDecel="9.000" id="vehCAVToCMSE6" lcAssertive="0.675" tau="1.481">
            <param key="device.toc.automatedType" value="vehCAVToCMSE"/>
            <param key="device.toc.manualType" value="vehLVMSE"/>
            <param key="has.toc.device" value="true"/>
            <param key="device.toc.mrmDecel" value="3.000"/>
            <param key="device.toc.recoveryRate" value="0.064"/>
            <param key="device.toc.initialAwareness" value="0.695"/>
            <param key="device.toc.useColorScheme" value="true"/>
            <param key="device.toc.responseTime" value="3.962"/>
        </vType>
        <vType accel="1.314" actionStepLength="0.100" carFollowModel="ACC" color="white" decel="2.296" emergencyDecel="9.000" id="vehCAVToCMSE7" lcAssertive="0.697" tau="1.549">
            <param key="device.toc.automatedType" value="vehCAVToCMSE"/>
            <param key="device.toc.manualType" value="vehLVMSE"/>
            <param key="has.toc.device" value="true"/>
            <param key="device.toc.mrmDecel" value="3.000"/>
            <param key="device.toc.recoveryRate" value="0.283"/>
            <param key="device.toc.initialAwareness" value="0.527"/>
            <param key="device.toc.useColorScheme" value="true"/>
            <param key="device.toc.responseTime" value="8.794"/>
        </vType>
        <vType accel="1.366" actionStepLength="0.100" carFollowModel="ACC" color="white" decel="3.340" emergencyDecel="9.000" id="vehCAVToCMSE8" lcAssertive="0.703" tau="1.564">
            <param key="device.toc.automatedType" value="vehCAVToCMSE"/>
            <param key="device.toc.manualType" value="vehLVMSE"/>
            <param key="has.toc.device" value="true"/>
            <param key="device.toc.mrmDecel" value="3.000"/>
            <param key="device.toc.recoveryRate" value="0.013"/>
            <param key="device.toc.initialAwareness" value="0.247"/>
            <param key="device.toc.useColorScheme" value="true"/>
            <param key="device.toc.responseTime" value="7.718"/>
        </vType>
        <vType accel="0.984" actionStepLength="0.100" carFollowModel="ACC" color="white" decel="3.888" emergencyDecel="9.000" id="vehCAVToCMSE9" lcAssertive="0.760" tau="1.423">
            <param key="device.toc.automatedType" value="vehCAVToCMSE"/>
            <param key="device.toc.manualType" value="vehLVMSE"/>
            <param key="has.toc.device" value="true"/>
            <param key="device.toc.mrmDecel" value="3.000"/>
            <param key="device.toc.recoveryRate" value="0.250"/>
            <param key="device.toc.initialAwareness" value="0.628"/>
            <param key="device.toc.useColorScheme" value="true"/>
            <param key="device.toc.responseTime" value="6.168"/>
        </vType>
        <vType accel="1.234" actionStepLength="0.100" carFollowModel="ACC" color="white" decel="3.776" emergencyDecel="9.000" id="vehCAVToCMSE10" lcAssertive="0.731" tau="1.452">
            <param key="device.toc.automatedType" value="vehCAVToCMSE"/>
            <param key="device.toc.manualType" value="vehLVMSE"/>
            <param key="has.toc.device" value="true"/>
            <param key="device.toc.mrmDecel" value="3.000"/>
            <param key="device.toc.recoveryRate" value="0.242"/>
            <param key="device.toc.initialAwareness" value="0.204"/>
            <param key="device.toc.useColorScheme" value="true"/>
            <param key="device.toc.responseTime" value="8.172"/>
        </vType>
        <vType accel="1.819" actionStepLength="0.100" carFollowModel="ACC" color="white" decel="3.923" emergencyDecel="9.000" id="vehCAVToCMSE11" lcAssertive="0.631" tau="1.558">
            <param key="device.toc.automatedType" value="vehCAVToCMSE"/>
            <param key="device.toc.manualType" value="vehLVMSE"/>
            <param key="has.toc.device" value="true"/>
            <param key="device.toc.mrmDecel" value="3.000"/>
            <param key="device.toc.recoveryRate" value="0.182"/>
            <param key="device.toc.initialAwareness" value="0.462"/>
            <param key="device.toc.useColorScheme" value="true"/>
            <param key="device.toc.responseTime" value="10.812"/>
        </vType>
        <vType accel="1.077" actionStepLength="0.100" carFollowModel="ACC" color="white" decel="3.727" emergencyDecel="9.000" id="vehCAVToCMSE12" lcAssertive="0.766" tau="1.773">
            <param key="device.toc.automatedType" value="vehCAVToCMSE"/>
            <param key="device.toc.manualType" value="vehLVMSE"/>
            <param key="has.toc.device" value="true"/>
            <param key="device.toc.mrmDecel" value="3.000"/>
            <param key="device.toc.recoveryRate" value="0.152"/>
            <param key="device.toc.initialAwareness" value="0.666"/>
            <param key="device.toc.useColorScheme" value="true"/>
            <param key="device.toc.responseTime" value="6.755"/>
        </vType>
        <vType accel="1.873" actionStepLength="0.100" carFollowModel="ACC" color="white" decel="2.535" emergencyDecel="9.000" id="vehCAVToCMSE13" lcAssertive="0.675" tau="1.681">
            <param key="device.toc.automatedType" value="vehCAVToCMSE"/>
            <param key="device.toc.manualType" value="vehLVMSE"/>
            <param key="has.toc.device" value="true"/>
            <param key="device.toc.mrmDecel" value="3.000"/>
            <param key="device.toc.recoveryRate" value="0.308"/>
            <param key="device.toc.initialAwareness" value="0.571"/>
            <param key="device.toc.useColorScheme" value="true"/>
            <param key="device.toc.responseTime" value="10.150"/>
        </vType>
        <vType accel="0.947" actionStepLength="0.100" carFollowModel="ACC" color="white" decel="2.762" emergencyDecel="9.000" id="vehCAVToCMSE14" lcAssertive="0.624" tau="1.684">
            <param key="device.toc.automatedType" value="vehCAVToCMSE"/>
            <param key="device.toc.manualType" value="vehLVMSE"/>
            <param key="has.toc.device" value="true"/>
            <param key="device.toc.mrmDecel" value="3.000"/>
            <param key="device.toc.recoveryRate" value="0.254"/>
            <param key="device.toc.initialAwareness" value="0.169"/>
            <param key="device.toc.useColorScheme" value="true"/>
            <param key="device.toc.responseTime" value="11.493"/>
        </vType>
        <vType accel="1.374" actionStepLength="0.100" carFollowModel="ACC" color="white" decel="2.535" emergencyDecel="9.000" id="vehCAVToCMSE15" lcAssertive="0.734" tau="1.543">
            <param key="device.toc.automatedType" value="vehCAVToCMSE"/>
            <param key="device.toc.manualType" value="vehLVMSE"/>
            <param key="has.toc.device" value="true"/>
            <param key="device.toc.mrmDecel" value="3.000"/>
            <param key="device.toc.recoveryRate" value="0.250"/>
            <param key="device.toc.initialAwareness" value="0.683"/>
            <param key="device.toc.useColorScheme" value="true"/>
            <param key="device.toc.responseTime" value="3.325"/>
        </vType>
        <vType accel="1.104" actionStepLength="0.100" carFollowModel="ACC" color="white" decel="2.987" emergencyDecel="9.000" id="vehCAVToCMSE16" lcAssertive="0.662" tau="1.676">
            <param key="device.toc.automatedType" value="vehCAVToCMSE"/>
            <param key="device.toc.manualType" value="vehLVMSE"/>
            <param key="has.toc.device" value="true"/>
            <param key="device.toc.mrmDecel" value="3.000"/>
            <param key="device.toc.recoveryRate" value="0.117"/>
            <param key="device.toc.initialAwareness" value="0.148"/>
            <param key="device.toc.useColorScheme" value="true"/>
            <param key="device.toc.responseTime" value="7.081"/>
        </vType>
        <vType accel="1.441" actionStepLength="0.100" carFollowModel="ACC" color="white" decel="3.953" emergencyDecel="9.000" id="vehCAVToCMSE17" lcAssertive="0.642" tau="1.752">
            <param key="device.toc.automatedType" value="vehCAVToCMSE"/>
            <param key="device.toc.manualType" value="vehLVMSE"/>
            <param key="has.toc.device" value="true"/>
            <param key="device.toc.mrmDecel" value="3.000"/>
            <param key="device.toc.recoveryRate" value="0.325"/>
            <param key="device.toc.initialAwareness" value="0.590"/>
            <param key="device.toc.useColorScheme" value="true"/>
            <param key="device.toc.responseTime" value="4.463"/>
        </vType>
        <vType accel="1.878" actionStepLength="0.100" carFollowModel="ACC" color="white" decel="2.653" emergencyDecel="9.000" id="vehCAVToCMSE18" lcAssertive="0.747" tau="1.616">
            <param key="device.toc.automatedType" value="vehCAVToCMSE"/>
            <param key="device.toc.manualType" value="vehLVMSE"/>
            <param key="has.toc.device" value="true"/>
            <param key="device.toc.mrmDecel" value="3.000"/>
            <param key="device.toc.recoveryRate" value="0.049"/>
            <param key="device.toc.initialAwareness" value="0.445"/>
            <param key="device.toc.useColorScheme" value="true"/>
            <param key="device.toc.responseTime" value="3.401"/>
        </vType>
        <vType accel="1.699" actionStepLength="0.100" carFollowModel="ACC" color="white" decel="2.386" emergencyDecel="9.000" id="vehCAVToCMSE19" lcAssertive="0.680" tau="1.394">
            <param key="device.toc.automatedType" value="vehCAVToCMSE"/>
            <param key="device.toc.manualType" value="vehLVMSE"/>
            <param key="has.toc.device" value="true"/>
            <param key="device.toc.mrmDecel" value="3.000"/>
            <param key="device.toc.recoveryRate" value="0.145"/>
            <param key="device.toc.initialAwareness" value="0.466"/>
            <param key="device.toc.useColorScheme" value="true"/>
            <param key="device.toc.responseTime" value="4.810"/>
        </vType>
        <vType accel="1.083" actionStepLength="0.100" carFollowModel="ACC" color="white" decel="2.265" emergencyDecel="9.000" id="vehCAVToCMSE20" lcAssertive="0.654" tau="1.587">
            <param key="device.toc.automatedType" value="vehCAVToCMSE"/>
            <param key="device.toc.manualType" value="vehLVMSE"/>
            <param key="has.toc.device" value="true"/>
            <param key="device.toc.mrmDecel" value="3.000"/>
            <param key="device.toc.recoveryRate" value="0.222"/>
            <param key="device.toc.initialAwareness" value="0.717"/>
            <param key="device.toc.useColorScheme" value="true"/>
            <param key="device.toc.responseTime" value="13.431"/>
        </vType>
        <vType accel="1.980" actionStepLength="0.100" carFollowModel="ACC" color="white" decel="2.000" emergencyDecel="9.000" id="vehCAVToCMSE21" lcAssertive="0.788" tau="1.628">
            <param key="device.toc.automatedType" value="vehCAVToCMSE"/>
            <param key="device.toc.manualType" value="vehLVMSE"/>
            <param key="has.toc.device" value="true"/>
            <param key="device.toc.mrmDecel" value="3.000"/>
            <param key="device.toc.recoveryRate" value="0.347"/>
            <param key="device.toc.initialAwareness" value="0.891"/>
            <param key="device.toc.useColorScheme" value="true"/>
            <param key="device.toc.responseTime" value="7.998"/>
        </vType>
        <vType accel="1.516" actionStepLength="0.100" carFollowModel="ACC" color="white" decel="3.630" emergencyDecel="9.000" id="vehCAVToCMSE22" lcAssertive="0.787" tau="1.749">
            <param key="device.toc.automatedType" value="vehCAVToCMSE"/>
            <param key="device.toc.manualType" value="vehLVMSE"/>
            <param key="has.toc.device" value="true"/>
            <param key="device.toc.mrmDecel" value="3.000"/>
            <param key="device.toc.recoveryRate" value="0.180"/>
            <param key="device.toc.initialAwareness" value="0.538"/>
            <param key="device.toc.useColorScheme" value="true"/>
            <param key="device.toc.responseTime" value="5.973"/>
        </vType>
        <vType accel="1.977" actionStepLength="0.100" carFollowModel="ACC" color="white" decel="2.919" emergencyDecel="9.000" id="vehCAVToCMSE23" lcAssertive="0.610" tau="1.569">
            <param key="device.toc.automatedType" value="vehCAVToCMSE"/>
            <param key="device.toc.manualType" value="vehLVMSE"/>
            <param key="has.toc.device" value="true"/>
            <param key="device.toc.mrmDecel" value="3.000"/>
            <param key="device.toc.recoveryRate" value="0.179"/>
            <param key="device.toc.initialAwareness" value="0.777"/>
            <param key="device.toc.useColorScheme" value="true"/>
            <param key="device.toc.responseTime" value="6.810"/>
        </vType>
        <vType accel="1.592" actionStepLength="0.100" carFollowModel="ACC" color="white" decel="3.630" emergencyDecel="9.000" id="vehCAVToCMSE24" lcAssertive="0.640" tau="1.695">
            <param key="device.toc.automatedType" value="vehCAVToCMSE"/>
            <param key="device.toc.manualType" value="vehLVMSE"/>
            <param key="has.toc.device" value="true"/>
            <param key="device.toc.mrmDecel" value="3.000"/>
            <param key="device.toc.recoveryRate" value="0.227"/>
            <param key="device.toc.initialAwareness" value="0.643"/>
            <param key="device.toc.useColorScheme" value="true"/>
            <param key="device.toc.responseTime" value="5.788"/>
        </vType>
        <vType accel="1.402" actionStepLength="0.100" carFollowModel="ACC" color="white" decel="2.586" emergencyDecel="9.000" id="vehCAVToCMSE25" lcAssertive="0.739" tau="1.652">
            <param key="device.toc.automatedType" value="vehCAVToCMSE"/>
            <param key="device.toc.manualType" value="vehLVMSE"/>
            <param key="has.toc.device" value="true"/>
            <param key="device.toc.mrmDecel" value="3.000"/>
            <param key="device.toc.recoveryRate" value="0.131"/>
            <param key="device.toc.initialAwareness" value="0.296"/>
            <param key="device.toc.useColorScheme" value="true"/>
            <param key="device.toc.responseTime" value="7.202"/>
        </vType>
        <vType accel="1.655" actionStepLength="0.100" carFollowModel="ACC" color="white" decel="3.644" emergencyDecel="9.000" id="vehCAVToCMSE26" lcAssertive="0.753" tau="1.581">
            <param key="device.toc.automatedType" value="vehCAVToCMSE"/>
            <param key="device.toc.manualType" value="vehLVMSE"/>
            <param key="has.toc.device" value="true"/>
            <param key="device.toc.mrmDecel" value="3.000"/>
            <param key="device.toc.recoveryRate" value="0.345"/>
            <param key="device.toc.initialAwareness" value="0.521"/>
            <param key="device.toc.useColorScheme" value="true"/>
            <param key="device.toc.responseTime" value="5.243"/>
        </vType>
        <vType accel="1.727" actionStepLength="0.100" carFollowModel="ACC" color="white" decel="3.638" emergencyDecel="9.000" id="vehCAVToCMSE27" lcAssertive="0.617" tau="1.473">
            <param key="device.toc.automatedType" value="vehCAVToCMSE"/>
            <param key="device.toc.manualType" value="vehLVMSE"/>
            <param key="has.toc.device" value="true"/>
            <param key="device.toc.mrmDecel" value="3.000"/>
            <param key="device.toc.recoveryRate" value="0.233"/>
            <param key="device.toc.initialAwareness" value="0.895"/>
            <param key="device.toc.useColorScheme" value="true"/>
            <param key="device.toc.responseTime" value="6.295"/>
        </vType>
        <vType accel="1.488" actionStepLength="0.100" carFollowModel="ACC" color="white" decel="2.593" emergencyDecel="9.000" id="vehCAVToCMSE28" lcAssertive="0.685" tau="1.798">
            <param key="device.toc.automatedType" value="vehCAVToCMSE"/>
            <param key="device.toc.manualType" value="vehLVMSE"/>
            <param key="has.toc.device" value="true"/>
            <param key="device.toc.mrmDecel" value="3.000"/>
            <param key="device.toc.recoveryRate" value="0.159"/>
            <param key="device.toc.initialAwareness" value="0.907"/>
            <param key="device.toc.useColorScheme" value="true"/>
            <param key="device.toc.responseTime" value="8.011"/>
        </vType>
        <vType accel="1.484" actionStepLength="0.100" carFollowModel="ACC" color="white" decel="2.609" emergencyDecel="9.000" id="vehCAVToCMSE29" lcAssertive="0.689" tau="1.774">
            <param key="device.toc.automatedType" value="vehCAVToCMSE"/>
            <param key="device.toc.manualType" value="vehLVMSE"/>
            <param key="has.toc.device" value="true"/>
            <param key="device.toc.mrmDecel" value="3.000"/>
            <param key="device.toc.recoveryRate" value="0.240"/>
            <param key="device.toc.initialAwareness" value="0.214"/>
            <param key="device.toc.useColorScheme" value="true"/>
            <param key="device.toc.responseTime" value="9.989"/>
        </vType>
        <vType accel="1.148" actionStepLength="0.100" carFollowModel="ACC" color="white" decel="3.246" emergencyDecel="9.000" id="vehCAVToCMSE30" lcAssertive="0.693" tau="1.532">
            <param key="device.toc.automatedType" value="vehCAVToCMSE"/>
            <param key="device.toc.manualType" value="vehLVMSE"/>
            <param key="has.toc.device" value="true"/>
            <param key="device.toc.mrmDecel" value="3.000"/>
            <param key="device.toc.recoveryRate" value="0.212"/>
            <param key="device.toc.initialAwareness" value="0.109"/>
            <param key="device.toc.useColorScheme" value="true"/>
            <param key="device.toc.responseTime" value="7.247"/>
        </vType>
        <vType accel="1.574" actionStepLength="0.100" carFollowModel="ACC" color="white" decel="2.469" emergencyDecel="9.000" id="vehCAVToCMSE31" lcAssertive="0.720" tau="1.751">
            <param key="device.toc.automatedType" value="vehCAVToCMSE"/>
            <param key="device.toc.manualType" value="vehLVMSE"/>
            <param key="has.toc.device" value="true"/>
            <param key="device.toc.mrmDecel" value="3.000"/>
            <param key="device.toc.recoveryRate" value="0.214"/>
            <param key="device.toc.initialAwareness" value="0.494"/>
            <param key="device.toc.useColorScheme" value="true"/>
            <param key="device.toc.responseTime" value="7.253"/>
        </vType>
        <vType accel="1.661" actionStepLength="0.100" carFollowModel="ACC" color="white" decel="3.870" emergencyDecel="9.000" id="vehCAVToCMSE32" lcAssertive="0.708" tau="1.577">
            <param key="device.toc.automatedType" value="vehCAVToCMSE"/>
            <param key="device.toc.manualType" value="vehLVMSE"/>
            <param key="has.toc.device" value="true"/>
            <param key="device.toc.mrmDecel" value="3.000"/>
            <param key="device.toc.recoveryRate" value="0.023"/>
            <param key="device.toc.initialAwareness" value="0.970"/>
            <param key="device.toc.useColorScheme" value="true"/>
            <param key="device.toc.responseTime" value="11.086"/>
        </vType>
        <vType accel="1.199" actionStepLength="0.100" carFollowModel="ACC" color="white" decel="3.748" emergencyDecel="9.000" id="vehCAVToCMSE33" lcAssertive="0.755" tau="1.729">
            <param key="device.toc.automatedType" value="vehCAVToCMSE"/>
            <param key="device.toc.manualType" value="vehLVMSE"/>
            <param key="has.toc.device" value="true"/>
            <param key="device.toc.mrmDecel" value="3.000"/>
            <param key="device.toc.recoveryRate" value="0.231"/>
            <param key="device.toc.initialAwareness" value="0.845"/>
            <param key="device.toc.useColorScheme" value="true"/>
            <param key="device.toc.responseTime" value="5.582"/>
        </vType>
        <vType accel="0.858" actionStepLength="0.100" carFollowModel="ACC" color="white" decel="3.414" emergencyDecel="9.000" id="vehCAVToCMSE34" lcAssertive="0.729" tau="1.373">
            <param key="device.toc.automatedType" value="vehCAVToCMSE"/>
            <param key="device.toc.manualType" value="vehLVMSE"/>
            <param key="has.toc.device" value="true"/>
            <param key="device.toc.mrmDecel" value="3.000"/>
            <param key="device.toc.recoveryRate" value="0.143"/>
            <param key="device.toc.initialAwareness" value="0.248"/>
            <param key="device.toc.useColorScheme" value="true"/>
            <param key="device.toc.responseTime" value="6.906"/>
        </vType>
        <vType accel="1.441" actionStepLength="0.100" carFollowModel="ACC" color="white" decel="3.284" emergencyDecel="9.000" id="vehCAVToCMSE35" lcAssertive="0.736" tau="1.422">
            <param key="device.toc.automatedType" value="vehCAVToCMSE"/>
            <param key="device.toc.manualType" value="vehLVMSE"/>
            <param key="has.toc.device" value="true"/>
            <param key="device.toc.mrmDecel" value="3.000"/>
            <param key="device.toc.recoveryRate" value="0.325"/>
            <param key="device.toc.initialAwareness" value="0.685"/>
            <param key="device.toc.useColorScheme" value="true"/>
            <param key="device.toc.responseTime" value="9.732"/>
        </vType>
        <vType accel="0.859" actionStepLength="0.100" carFollowModel="ACC" color="white" decel="3.612" emergencyDecel="9.000" id="vehCAVToCMSE36" lcAssertive="0.669" tau="1.552">
            <param key="device.toc.automatedType" value="vehCAVToCMSE"/>
            <param key="device.toc.manualType" value="vehLVMSE"/>
            <param key="has.toc.device" value="true"/>
            <param key="device.toc.mrmDecel" value="3.000"/>
            <param key="device.toc.recoveryRate" value="0.244"/>
            <param key="device.toc.initialAwareness" value="0.729"/>
            <param key="device.toc.useColorScheme" value="true"/>
            <param key="device.toc.responseTime" value="9.688"/>
        </vType>
        <vType accel="0.990" actionStepLength="0.100" carFollowModel="ACC" color="white" decel="2.426" emergencyDecel="9.000" id="vehCAVToCMSE37" lcAssertive="0.749" tau="1.380">
            <param key="device.toc.automatedType" value="vehCAVToCMSE"/>
            <param key="device.toc.manualType" value="vehLVMSE"/>
            <param key="has.toc.device" value="true"/>
            <param key="device.toc.mrmDecel" value="3.000"/>
            <param key="device.toc.recoveryRate" value="0.176"/>
            <param key="device.toc.initialAwareness" value="0.302"/>
            <param key="device.toc.useColorScheme" value="true"/>
            <param key="device.toc.responseTime" value="4.140"/>
        </vType>
        <vType accel="1.101" actionStepLength="0.100" carFollowModel="ACC" color="white" decel="2.597" emergencyDecel="9.000" id="vehCAVToCMSE38" lcAssertive="0.778" tau="1.568">
            <param key="device.toc.automatedType" value="vehCAVToCMSE"/>
            <param key="device.toc.manualType" value="vehLVMSE"/>
            <param key="has.toc.device" value="true"/>
            <param key="device.toc.mrmDecel" value="3.000"/>
            <param key="device.toc.recoveryRate" value="0.197"/>
            <param key="device.toc.initialAwareness" value="0.318"/>
            <param key="device.toc.useColorScheme" value="true"/>
            <param key="device.toc.responseTime" value="9.737"/>
        </vType>
        <vType accel="0.859" actionStepLength="0.100" carFollowModel="ACC" color="white" decel="3.945" emergencyDecel="9.000" id="vehCAVToCMSE39" lcAssertive="0.728" tau="1.634">
            <param key="device.toc.automatedType" value="vehCAVToCMSE"/>
            <param key="device.toc.manualType" value="vehLVMSE"/>
            <param key="has.toc.device" value="true"/>
            <param key="device.toc.mrmDecel" value="3.000"/>
            <param key="device.toc.recoveryRate" value="0.265"/>
            <param key="device.toc.initialAwareness" value="0.290"/>
            <param key="device.toc.useColorScheme" value="true"/>
            <param key="device.toc.responseTime" value="5.705"/>
        </vType>
        <vType accel="1.568" actionStepLength="0.100" carFollowModel="ACC" color="white" decel="2.940" emergencyDecel="9.000" id="vehCAVToCMSE40" lcAssertive="0.751" tau="1.467">
            <param key="device.toc.automatedType" value="vehCAVToCMSE"/>
            <param key="device.toc.manualType" value="vehLVMSE"/>
            <param key="has.toc.device" value="true"/>
            <param key="device.toc.mrmDecel" value="3.000"/>
            <param key="device.toc.recoveryRate" value="0.287"/>
            <param key="device.toc.initialAwareness" value="0.688"/>
            <param key="device.toc.useColorScheme" value="true"/>
            <param key="device.toc.responseTime" value="2.410"/>
        </vType>
        <vType accel="1.983" actionStepLength="0.100" carFollowModel="ACC" color="white" decel="2.892" emergencyDecel="9.000" id="vehCAVToCMSE41" lcAssertive="0.662" tau="1.619">
            <param key="device.toc.automatedType" value="vehCAVToCMSE"/>
            <param key="device.toc.manualType" value="vehLVMSE"/>
            <param key="has.toc.device" value="true"/>
            <param key="device.toc.mrmDecel" value="3.000"/>