<additional xmlns:xsi="http://www.w3.org/2001/XMLSchema-instance" xsi:noNamespaceSchemaLocation="http://sumo.dlr.de/xsd/additional_file.xsd">
    <vTypeDistribution id="vehCAVToCOS">
        <vType accel="1.362" actionStepLength="0.100" carFollowModel="ACC" color="white" decel="2.024" emergencyDecel="9.000" id="vehCAVToCOS0" lcAssertive="0.468" tau="1.901">
            <param key="device.toc.automatedType" value="vehCAVToCOS"/>
            <param key="device.toc.manualType" value="vehLVOS"/>
            <param key="has.toc.device" value="true"/>
            <param key="device.toc.mrmDecel" value="3.000"/>
            <param key="device.toc.recoveryRate" value="0.325"/>
            <param key="device.toc.initialAwareness" value="0.870"/>
            <param key="device.toc.useColorScheme" value="true"/>
            <param key="device.toc.responseTime" value="4.548"/>
        </vType>
        <vType accel="1.868" actionStepLength="0.100" carFollowModel="ACC" color="white" decel="2.343" emergencyDecel="9.000" id="vehCAVToCOS1" lcAssertive="0.537" tau="1.907">
            <param key="device.toc.automatedType" value="vehCAVToCOS"/>
            <param key="device.toc.manualType" value="vehLVOS"/>
            <param key="has.toc.device" value="true"/>
            <param key="device.toc.mrmDecel" value="3.000"/>
            <param key="device.toc.recoveryRate" value="0.348"/>
            <param key="device.toc.initialAwareness" value="0.418"/>
            <param key="device.toc.useColorScheme" value="true"/>
            <param key="device.toc.responseTime" value="5.009"/>
        </vType>
        <vType accel="1.810" actionStepLength="0.100" carFollowModel="ACC" color="white" decel="2.568" emergencyDecel="9.000" id="vehCAVToCOS2" lcAssertive="0.446" tau="1.944">
            <param key="device.toc.automatedType" value="vehCAVToCOS"/>
            <param key="device.toc.manualType" value="vehLVOS"/>
            <param key="has.toc.device" value="true"/>
            <param key="device.toc.mrmDecel" value="3.000"/>
            <param key="device.toc.recoveryRate" value="0.265"/>
            <param key="device.toc.initialAwareness" value="0.983"/>
            <param key="device.toc.useColorScheme" value="true"/>
            <param key="device.toc.responseTime" value="7.927"/>
        </vType>
        <vType accel="1.501" actionStepLength="0.100" carFollowModel="ACC" color="white" decel="2.042" emergencyDecel="9.000" id="vehCAVToCOS3" lcAssertive="0.465" tau="1.956">
            <param key="device.toc.automatedType" value="vehCAVToCOS"/>
            <param key="device.toc.manualType" value="vehLVOS"/>
            <param key="has.toc.device" value="true"/>
            <param key="device.toc.mrmDecel" value="3.000"/>
            <param key="device.toc.recoveryRate" value="0.020"/>
            <param key="device.toc.initialAwareness" value="0.766"/>
            <param key="device.toc.useColorScheme" value="true"/>
            <param key="device.toc.responseTime" value="9.053"/>
        </vType>
        <vType accel="1.750" actionStepLength="0.100" carFollowModel="ACC" color="white" decel="2.255" emergencyDecel="9.000" id="vehCAVToCOS4" lcAssertive="0.433" tau="1.981">
            <param key="device.toc.automatedType" value="vehCAVToCOS"/>
            <param key="device.toc.manualType" value="vehLVOS"/>
            <param key="has.toc.device" value="true"/>
            <param key="device.toc.mrmDecel" value="3.000"/>
            <param key="device.toc.recoveryRate" value="0.183"/>
            <param key="device.toc.initialAwareness" value="0.634"/>
            <param key="device.toc.useColorScheme" value="true"/>
            <param key="device.toc.responseTime" value="5.239"/>
        </vType>
        <vType accel="0.935" actionStepLength="0.100" carFollowModel="ACC" color="white" decel="2.782" emergencyDecel="9.000" id="vehCAVToCOS5" lcAssertive="0.475" tau="1.881">
            <param key="device.toc.automatedType" value="vehCAVToCOS"/>
            <param key="device.toc.manualType" value="vehLVOS"/>
            <param key="has.toc.device" value="true"/>
            <param key="device.toc.mrmDecel" value="3.000"/>
            <param key="device.toc.recoveryRate" value="0.064"/>
            <param key="device.toc.initialAwareness" value="0.895"/>
            <param key="device.toc.useColorScheme" value="true"/>
            <param key="device.toc.responseTime" value="4.448"/>
        </vType>
        <vType accel="1.314" actionStepLength="0.100" carFollowModel="ACC" color="white" decel="2.296" emergencyDecel="9.000" id="vehCAVToCOS6" lcAssertive="0.497" tau="1.949">
            <param key="device.toc.automatedType" value="vehCAVToCOS"/>
            <param key="device.toc.manualType" value="vehLVOS"/>
            <param key="has.toc.device" value="true"/>
            <param key="device.toc.mrmDecel" value="3.000"/>
            <param key="device.toc.recoveryRate" value="0.283"/>
            <param key="device.toc.initialAwareness" value="0.727"/>
            <param key="device.toc.useColorScheme" value="true"/>
            <param key="device.toc.responseTime" value="8.507"/>
        </vType>
        <vType accel="1.366" actionStepLength="0.100" carFollowModel="ACC" color="white" decel="3.340" emergencyDecel="9.000" id="vehCAVToCOS7" lcAssertive="0.503" tau="1.964">
            <param key="device.toc.automatedType" value="vehCAVToCOS"/>
            <param key="device.toc.manualType" value="vehLVOS"/>
            <param key="has.toc.device" value="true"/>
            <param key="device.toc.mrmDecel" value="3.000"/>
            <param key="device.toc.recoveryRate" value="0.013"/>
            <param key="device.toc.initialAwareness" value="0.447"/>
            <param key="device.toc.useColorScheme" value="true"/>
            <param key="device.toc.responseTime" value="7.603"/>
        </vType>
        <vType accel="0.984" actionStepLength="0.100" carFollowModel="ACC" color="white" decel="3.888" emergencyDecel="9.000" id="vehCAVToCOS8" lcAssertive="0.560" tau="1.823">
            <param key="device.toc.automatedType" value="vehCAVToCOS"/>
            <param key="device.toc.manualType" value="vehLVOS"/>
            <param key="has.toc.device" value="true"/>
            <param key="device.toc.mrmDecel" value="3.000"/>
            <param key="device.toc.recoveryRate" value="0.250"/>
            <param key="device.toc.initialAwareness" value="0.828"/>
            <param key="device.toc.useColorScheme" value="true"/>
            <param key="device.toc.responseTime" value="6.301"/>
        </vType>
        <vType accel="1.234" actionStepLength="0.100" carFollowModel="ACC" color="white" decel="3.776" emergencyDecel="9.000" id="vehCAVToCOS9" lcAssertive="0.547" tau="1.852">
            <param key="device.toc.automatedType" value="vehCAVToCOS"/>
            <param key="device.toc.manualType" value="vehLVOS"/>
            <param key="has.toc.device" value="true"/>
            <param key="device.toc.mrmDecel" value="3.000"/>
            <param key="device.toc.recoveryRate" value="0.242"/>
            <param key="device.toc.initialAwareness" value="0.247"/>
            <param key="device.toc.useColorScheme" value="true"/>
            <param key="device.toc.responseTime" value="4.925"/>
        </vType>
        <vType accel="1.819" actionStepLength="0.100" carFollowModel="ACC" color="white" decel="3.923" emergencyDecel="9.000" id="vehCAVToCOS10" lcAssertive="0.431" tau="1.958">
            <param key="device.toc.automatedType" value="vehCAVToCOS"/>
            <param key="device.toc.manualType" value="vehLVOS"/>
            <param key="has.toc.device" value="true"/>
            <param key="device.toc.mrmDecel" value="3.000"/>
            <param key="device.toc.recoveryRate" value="0.182"/>
            <param key="device.toc.initialAwareness" value="0.662"/>
            <param key="device.toc.useColorScheme" value="true"/>
            <param key="device.toc.responseTime" value="10.202"/>
        </vType>
        <vType accel="1.402" actionStepLength="0.100" carFollowModel="ACC" color="white" decel="3.656" emergencyDecel="9.000" id="vehCAVToCOS11" lcAssertive="0.557" tau="1.904">
            <param key="device.toc.automatedType" value="vehCAVToCOS"/>
            <param key="device.toc.manualType" value="vehLVOS"/>
            <param key="has.toc.device" value="true"/>
            <param key="device.toc.mrmDecel" value="3.000"/>
            <param key="device.toc.recoveryRate" value="0.158"/>
            <param key="device.toc.initialAwareness" value="0.821"/>
            <param key="device.toc.useColorScheme" value="true"/>
            <param key="device.toc.responseTime" value="9.269"/>
        </vType>
        <vType accel="1.735" actionStepLength="0.100" carFollowModel="ACC" color="white" decel="2.750" emergencyDecel="9.000" id="vehCAVToCOS12" lcAssertive="0.554" tau="1.907">
            <param key="device.toc.automatedType" value="vehCAVToCOS"/>
            <param key="device.toc.manualType" value="vehLVOS"/>
            <param key="has.toc.device" value="true"/>
            <param key="device.toc.mrmDecel" value="3.000"/>
            <param key="device.toc.recoveryRate" value="0.056"/>
            <param key="device.toc.initialAwareness" value="0.826"/>
            <param key="device.toc.useColorScheme" value="true"/>
            <param key="device.toc.responseTime" value="2.589"/>
        </vType>
        <vType accel="1.214" actionStepLength="0.100" carFollowModel="ACC" color="white" decel="3.496" emergencyDecel="9.000" id="vehCAVToCOS13" lcAssertive="0.561" tau="1.889">
            <param key="device.toc.automatedType" value="vehCAVToCOS"/>
            <param key="device.toc.manualType" value="vehLVOS"/>
            <param key="has.toc.device" value="true"/>
            <param key="device.toc.mrmDecel" value="3.000"/>
            <param key="device.toc.recoveryRate" value="0.176"/>
            <param key="device.toc.initialAwareness" value="0.662"/>
            <param key="device.toc.useColorScheme" value="true"/>
            <param key="device.toc.responseTime" value="6.022"/>
        </vType>
        <vType accel="1.487" actionStepLength="0.100" carFollowModel="ACC" color="white" decel="3.032" emergencyDecel="9.000" id="vehCAVToCOS14" lcAssertive="0.576" tau="1.833">
            <param key="device.toc.automatedType" value="vehCAVToCOS"/>
            <param key="device.toc.manualType" value="vehLVOS"/>
            <param key="has.toc.device" value="true"/>
            <param key="device.toc.mrmDecel" value="3.000"/>
            <param key="device.toc.recoveryRate" value="0.160"/>
            <param key="device.toc.initialAwareness" value="0.587"/>
            <param key="device.toc.useColorScheme" value="true"/>
            <param key="device.toc.responseTime" value="13.883"/>
        </vType>
        <vType accel="1.800" actionStepLength="0.100" carFollowModel="ACC" color="white" decel="2.424" emergencyDecel="9.000" id="vehCAVToCOS15" lcAssertive="0.538" tau="1.988">
            <param key="device.toc.automatedType" value="vehCAVToCOS"/>
            <param key="device.toc.manualType" value="vehLVOS"/>
            <param key="has.toc.device" value="true"/>
            <param key="device.toc.mrmDecel" value="3.000"/>
            <param key="device.toc.recoveryRate" value="0.080"/>
            <param key="device.toc.initialAwareness" value="0.724"/>
            <param key="device.toc.useColorScheme" value="true"/>
            <param key="device.toc.responseTime" value="3.837"/>
        </vType>
        <vType accel="1.974" actionStepLength="0.100" carFollowModel="ACC" color="white" decel="2.450" emergencyDecel="9.000" id="vehCAVToCOS16" lcAssertive="0.489" tau="1.931">
            <param key="device.toc.automatedType" value="vehCAVToCOS"/>
            <param key="device.toc.manualType" value="vehLVOS"/>
            <param key="has.toc.device" value="true"/>
            <param key="device.toc.mrmDecel" value="3.000"/>
            <param key="device.toc.recoveryRate" value="0.182"/>
            <param key="device.toc.initialAwareness" value="0.760"/>
            <param key="device.toc.useColorScheme" value="true"/>
            <param key="device.toc.responseTime" value="5.710"/>
        </vType>
        <vType accel="1.436" actionStepLength="0.100" carFollowModel="ACC" color="white" decel="3.216" emergencyDecel="9.000" id="vehCAVToCOS17" lcAssertive="0.427" tau="1.825">
            <param key="device.toc.automatedType" value="vehCAVToCOS"/>
            <param key="device.toc.manualType" value="vehLVOS"/>
            <param key="has.toc.device" value="true"/>
            <param key="device.toc.mrmDecel" value="3.000"/>
            <param key="device.toc.recoveryRate" value="0.180"/>
            <param key="device.toc.initialAwareness" value="0.575"/>
            <param key="device.toc.useColorScheme" value="true"/>
            <param key="device.toc.responseTime" value="4.562"/>
        </vType>
        <vType accel="1.640" actionStepLength="0.100" carFollowModel="ACC" color="white" decel="3.480" emergencyDecel="9.000" id="vehCAVToCOS18" lcAssertive="0.540" tau="1.907">
            <param key="device.toc.automatedType" value="vehCAVToCOS"/>
            <param key="device.toc.manualType" value="vehLVOS"/>
            <param key="has.toc.device" value="true"/>
            <param key="device.toc.mrmDecel" value="3.000"/>
            <param key="device.toc.recoveryRate" value="0.318"/>
            <param key="device.toc.initialAwareness" value="0.400"/>
            <param key="device.toc.useColorScheme" value="true"/>
            <param key="device.toc.responseTime" value="9.736"/>
        </vType>
        <vType accel="1.627" actionStepLength="0.100" carFollowModel="ACC" color="white" decel="2.589" emergencyDecel="9.000" id="vehCAVToCOS19" lcAssertive="0.479" tau="1.961">
            <param key="device.toc.automatedType" value="vehCAVToCOS"/>
            <param key="device.toc.manualType" value="vehLVOS"/>
            <param key="has.toc.device" value="true"/>
            <param key="device.toc.mrmDecel" value="3.000"/>
            <param key="device.toc.recoveryRate" value="0.202"/>
            <param key="device.toc.initialAwareness" value="0.960"/>
            <param key="device.toc.useColorScheme" value="true"/>
            <param key="device.toc.responseTime" value="6.674"/>
        </vType>
        <vType accel="1.424" actionStepLength="0.100" carFollowModel="ACC" color="white" decel="2.103" emergencyDecel="9.000" id="vehCAVToCOS20" lcAssertive="0.509" tau="1.984">
            <param key="device.toc.automatedType" value="vehCAVToCOS"/>
            <param key="device.toc.manualType" value="vehLVOS"/>
            <param key="has.toc.device" value="true"/>
            <param key="device.toc.mrmDecel" value="3.000"/>
            <param key="device.toc.recoveryRate" value="0.292"/>
            <param key="device.toc.initialAwareness" value="0.842"/>
            <param key="device.toc.useColorScheme" value="true"/>
            <param key="device.toc.responseTime" value="7.558"/>
        </vType>
        <vType accel="1.759" actionStepLength="0.100" carFollowModel="ACC" color="white" decel="2.311" emergencyDecel="9.000" id="vehCAVToCOS21" lcAssertive="0.459" tau="1.903">
            <param key="device.toc.automatedType" value="vehCAVToCOS"/>
            <param key="device.toc.manualType" value="vehLVOS"/>
            <param key="has.toc.device" value="true"/>
            <param key="device.toc.mrmDecel" value="3.000"/>
            <param key="device.toc.recoveryRate" value="0.140"/>
            <param key="device.toc.initialAwareness" value="0.670"/>
            <param key="device.toc.useColorScheme" value="true"/>
            <param key="device.toc.responseTime" value="10.612"/>
        </vType>
        <vType accel="1.888" actionStepLength="0.100" carFollowModel="ACC" color="white" decel="2.906" emergencyDecel="9.000" id="vehCAVToCOS22" lcAssertive="0.515" tau="1.864">
            <param key="device.toc.automatedType" value="vehCAVToCOS"/>
            <param key="device.toc.manualType" value="vehLVOS"/>
            <param key="has.toc.device" value="true"/>
            <param key="device.toc.mrmDecel" value="3.000"/>
            <param key="device.toc.recoveryRate" value="0.208"/>
            <param key="device.toc.initialAwareness" value="0.977"/>
            <param key="device.toc.useColorScheme" value="true"/>
            <param key="device.toc.responseTime" value="2.859"/>
        </vType>
        <vType accel="0.865" actionStepLength="0.100" carFollowModel="ACC" color="white" decel="3.326" emergencyDecel="9.000" id="vehCAVToCOS23" lcAssertive="0.564" tau="1.859">
            <param key="device.toc.automatedType" value="vehCAVToCOS"/>
            <param key="device.toc.manualType" value="vehLVOS"/>
            <param key="has.toc.device" value="true"/>
            <param key="device.toc.mrmDecel" value="3.000"/>
            <param key="device.toc.recoveryRate" value="0.253"/>
            <param key="device.toc.initialAwareness" value="0.768"/>
            <param key="device.toc.useColorScheme" value="true"/>
            <param key="device.toc.responseTime" value="3.699"/>
        </vType>
        <vType accel="1.086" actionStepLength="0.100" carFollowModel="ACC" color="white" decel="2.988" emergencyDecel="9.000" id="vehCAVToCOS24" lcAssertive="0.540" tau="1.944">
            <param key="device.toc.automatedType" value="vehCAVToCOS"/>
            <param key="device.toc.manualType" value="vehLVOS"/>
            <param key="has.toc.device" value="true"/>
            <param key="device.toc.mrmDecel" value="3.000"/>
            <param key="device.toc.recoveryRate" value="0.477"/>
            <param key="device.toc.initialAwareness" value="0.283"/>
            <param key="device.toc.useColorScheme" value="true"/>
            <param key="device.toc.responseTime" value="6.146"/>
        </vType>
        <vType accel="1.901" actionStepLength="0.100" carFollowModel="ACC" color="white" decel="2.984" emergencyDecel="9.000" id="vehCAVToCOS25" lcAssertive="0.405" tau="1.971">
            <param key="device.toc.automatedType" value="vehCAVToCOS"/>
            <param key="device.toc.manualType" value="vehLVOS"/>
            <param key="has.toc.device" value="true"/>
            <param key="device.toc.mrmDecel" value="3.000"/>
            <param key="device.toc.recoveryRate" value="0.287"/>
            <param key="device.toc.initialAwareness" value="0.583"/>
            <param key="device.toc.useColorScheme" value="true"/>
            <param key="device.toc.responseTime" value="11.308"/>
        </vType>
        <vType accel="1.625" actionStepLength="0.100" carFollowModel="ACC" color="white" decel="2.160" emergencyDecel="9.000" id="vehCAVToCOS26" lcAssertive="0.465" tau="1.977">
            <param key="device.toc.automatedType" value="vehCAVToCOS"/>
            <param key="device.toc.manualType" value="vehLVOS"/>
            <param key="has.toc.device" value="true"/>
            <param key="device.toc.mrmDecel" value="3.000"/>
            <param key="device.toc.recoveryRate" value="0.166"/>
            <param key="device.toc.initialAwareness" value="0.868"/>
            <param key="device.toc.useColorScheme" value="true"/>
            <param key="device.toc.responseTime" value="9.452"/>
        </vType>
        <vType accel="1.643" actionStepLength="0.100" carFollowModel="ACC" color="white" decel="3.074" emergencyDecel="9.000" id="vehCAVToCOS27" lcAssertive="0.510" tau="1.985">
            <param key="device.toc.automatedType" value="vehCAVToCOS"/>
            <param key="device.toc.manualType" value="vehLVOS"/>
            <param key="has.toc.device" value="true"/>
            <param key="device.toc.mrmDecel" value="3.000"/>
            <param key="device.toc.recoveryRate" value="0.314"/>
            <param key="device.toc.initialAwareness" value="0.541"/>
            <param key="device.toc.useColorScheme" value="true"/>
            <param key="device.toc.responseTime" value="6.956"/>
        </vType>
        <vType accel="1.661" actionStepLength="0.100" carFollowModel="ACC" color="white" decel="3.870" emergencyDecel="9.000" id="vehCAVToCOS28" lcAssertive="0.508" tau="1.977">
            <param key="device.toc.automatedType" value="vehCAVToCOS"/>
            <param key="device.toc.manualType" value="vehLVOS"/>
            <param key="has.toc.device" value="true"/>
            <param key="device.toc.mrmDecel" value="3.000"/>
            <param key="device.toc.recoveryRate" value="0.023"/>
            <param key="device.toc.initialAwareness" value="0.221"/>
            <param key="device.toc.useColorScheme" value="true"/>
            <param key="device.toc.responseTime" value="9.493"/>
        </vType>
        <vType accel="1.199" actionStepLength="0.100" carFollowModel="ACC" color="white" decel="3.748" emergencyDecel="9.000" id="vehCAVToCOS29" lcAssertive="0.443" tau="1.820">
            <param key="device.toc.automatedType" value="vehCAVToCOS"/>
            <param key="device.toc.manualType" value="vehLVOS"/>
            <param key="has.toc.device" value="true"/>
            <param key="device.toc.mrmDecel" value="3.000"/>
            <param key="device.toc.recoveryRate" value="0.373"/>
            <param key="device.toc.initialAwareness" value="0.136"/>
            <param key="device.toc.useColorScheme" value="true"/>
            <param key="device.toc.responseTime" value="9.413"/>
        </vType>
        <vType accel="0.858" actionStepLength="0.100" carFollowModel="ACC" color="white" decel="3.414" emergencyDecel="9.000" id="vehCAVToCOS30" lcAssertive="0.529" tau="1.887">
            <param key="device.toc.automatedType" value="vehCAVToCOS"/>
            <param key="device.toc.manualType" value="vehLVOS"/>
            <param key="has.toc.device" value="true"/>
            <param key="device.toc.mrmDecel" value="3.000"/>
            <param key="device.toc.recoveryRate" value="0.095"/>
            <param key="device.toc.initialAwareness" value="0.448"/>
            <param key="device.toc.useColorScheme" value="true"/>
            <param key="device.toc.responseTime" value="6.921"/>
        </vType>
        <vType accel="1.441" actionStepLength="0.100" carFollowModel="ACC" color="white" decel="3.284" emergencyDecel="9.000" id="vehCAVToCOS31" lcAssertive="0.536" tau="1.822">
            <param key="device.toc.automatedType" value="vehCAVToCOS"/>
            <param key="device.toc.manualType" value="vehLVOS"/>
            <param key="has.toc.device" value="true"/>
            <param key="device.toc.mrmDecel" value="3.000"/>
            <param key="device.toc.recoveryRate" value="0.325"/>
            <param key="device.toc.initialAwareness" value="0.885"/>
            <param key="device.toc.useColorScheme" value="true"/>
            <param key="device.toc.responseTime" value="9.295"/>
        </vType>
        <vType accel="0.859" actionStepLength="0.100" carFollowModel="ACC" color="white" decel="3.612" emergencyDecel="9.000" id="vehCAVToCOS32" lcAssertive="0.469" tau="1.952">
            <param key="device.toc.automatedType" value="vehCAVToCOS"/>
            <param key="device.toc.manualType" value="vehLVOS"/>
            <param key="has.toc.device" value="true"/>
            <param key="device.toc.mrmDecel" value="3.000"/>
            <param key="device.toc.recoveryRate" value="0.244"/>
            <param key="device.toc.initialAwareness" value="0.929"/>
            <param key="device.toc.useColorScheme" value="true"/>
            <param key="device.toc.responseTime" value="9.258"/>
        </vType>
        <vType accel="0.990" actionStepLength="0.100" carFollowModel="ACC" color="white" decel="2.426" emergencyDecel="9.000" id="vehCAVToCOS33" lcAssertive="0.549" tau="1.953">
            <param key="device.toc.automatedType" value="vehCAVToCOS"/>
            <param key="device.toc.manualType" value="vehLVOS"/>
            <param key="has.toc.device" value="true"/>
            <param key="device.toc.mrmDecel" value="3.000"/>
            <param key="device.toc.recoveryRate" value="0.271"/>
            <param key="device.toc.initialAwareness" value="0.502"/>
            <param key="device.toc.useColorScheme" value="true"/>
            <param key="device.toc.responseTime" value="4.598"/>
        </vType>
        <vType accel="1.101" actionStepLength="0.100" carFollowModel="ACC" color="white" decel="2.597" emergencyDecel="9.000" id="vehCAVToCOS34" lcAssertive="0.578" tau="1.968">
            <param key="device.toc.automatedType" value="vehCAVToCOS"/>
            <param key="device.toc.manualType" value="vehLVOS"/>
            <param key="has.toc.device" value="true"/>
            <param key="device.toc.mrmDecel" value="3.000"/>
            <param key="device.toc.recoveryRate" value="0.197"/>
            <param key="device.toc.initialAwareness" value="0.518"/>
            <param key="device.toc.useColorScheme" value="true"/>
            <param key="device.toc.responseTime" value="9.299"/>
        </vType>
        <vType accel="0.799" actionStepLength="0.100" carFollowModel="ACC" color="white" decel="2.482" emergencyDecel="9.000" id="vehCAVToCOS35" lcAssertive="0.587" tau="1.872">
            <param key="device.toc.automatedType" value="vehCAVToCOS"/>
            <param key="device.toc.manualType" value="vehLVOS"/>
            <param key="has.toc.device" value="true"/>
            <param key="device.toc.mrmDecel" value="3.000"/>
            <param key="device.toc.recoveryRate" value="0.294"/>
            <param key="device.toc.initialAwareness" value="0.785"/>
            <param key="device.toc.useColorScheme" value="true"/>
            <param key="device.toc.responseTime" value="5.604"/>
        </vType>
        <vType accel="1.596" actionStepLength="0.100" carFollowModel="ACC" color="white" decel="3.201" emergencyDecel="9.000" id="vehCAVToCOS36" lcAssertive="0.449" tau="1.988">
            <param key="device.toc.automatedType" value="vehCAVToCOS"/>
            <param key="device.toc.manualType" value="vehLVOS"/>
            <param key="has.toc.device" value="true"/>
            <param key="device.toc.mrmDecel" value="3.000"/>
            <param key="device.toc.recoveryRate" value="0.263"/>
            <param key="device.toc.initialAwareness" value="0.845"/>
            <param key="device.toc.useColorScheme" value="true"/>
            <param key="device.toc.responseTime" value="6.774"/>
        </vType>
        <vType accel="1.246" actionStepLength="0.100" carFollowModel="ACC" color="white" decel="3.338" emergencyDecel="9.000" id="vehCAVToCOS37" lcAssertive="0.527" tau="1.968">
            <param key="device.toc.automatedType" value="vehCAVToCOS"/>
            <param key="device.toc.manualType" value="vehLVOS"/>
            <param key="has.toc.device" value="true"/>
            <param key="device.toc.mrmDecel" value="3.000"/>
            <param key="device.toc.recoveryRate" value="0.162"/>
            <param key="device.toc.initialAwareness" value="0.600"/>
            <param key="device.toc.useColorScheme" value="true"/>
            <param key="device.toc.responseTime" value="5.424"/>
        </vType>
        <vType accel="1.751" actionStepLength="0.100" carFollowModel="ACC" color="white" decel="2.513" emergencyDecel="9.000" id="vehCAVToCOS38" lcAssertive="0.480" tau="1.809">
            <param key="device.toc.automatedType" value="vehCAVToCOS"/>
            <param key="device.toc.manualType" value="vehLVOS"/>
            <param key="has.toc.device" value="true"/>
            <param key="device.toc.mrmDecel" value="3.000"/>
            <param key="device.toc.recoveryRate" value="0.266"/>
            <param key="device.toc.initialAwareness" value="0.851"/>
            <param key="device.toc.useColorScheme" value="true"/>
            <param key="device.toc.responseTime" value="10.072"/>
        </vType>
        <vType accel="1.910" actionStepLength="0.100" carFollowModel="ACC" color="white" decel="3.540" emergencyDecel="9.000" id="vehCAVToCOS39" lcAssertive="0.483" tau="1.958">
            <param key="device.toc.automatedType" value="vehCAVToCOS"/>
            <param key="device.toc.manualType" value="vehLVOS"/>
            <param key="has.toc.device" value="true"/>
            <param key="device.toc.mrmDecel" value="3.000"/>
            <param key="device.toc.recoveryRate" value="0.120"/>
            <param key="device.toc.initialAwareness" value="0.659"/>
            <param key="device.toc.useColorScheme" value="true"/>
            <param key="device.toc.responseTime" value="8.036"/>
        </vType>
        <vType accel="0.876" actionStepLength="0.100" carFollowModel="ACC" color="white" decel="2.102" emergencyDecel="9.000" id="vehCAVToCOS40" lcAssertive="0.562" tau="1.910">
            <param key="device.toc.automatedType" value="vehCAVToCOS"/>
            <param key="device.toc.manualType" value="vehLVOS"/>
            <param key="has.toc.device" value="true"/>
            <param key="device.toc.mrmDecel" value="3.000"/>
            <param key="device.toc.recoveryRate" value="0.143"/>
            <param key="device.toc.initialAwareness" value="0.910"/>
            <param key="device.toc.useColorScheme" value="true"/>
            <param key="device.toc.responseTime" value="7.640"/>
        </vType>
        <vType accel="1.824" actionStepLength="0.100" carFollowModel="ACC" color="white" decel="3.925" emergencyDecel="9.000" id="vehCAVToCOS41" lcAssertive="0.526" tau="1.948">
            <param key="device.toc.automatedType" value="vehCAVToCOS"/>
            <param key="device.toc.manualType" value="vehLVOS"/>
            <param key="has.toc.device" value="true"/>
            <param key="device.toc.mrmDecel" value="3.000"/>
            <param key="device.toc.recoveryRate" value="0.159"/>
            <param key="device.toc.initialAwareness" value="0.353"/>