<additional xmlns:xsi="http://www.w3.org/2001/XMLSchema-instance" xsi:noNamespaceSchemaLocation="http://sumo.dlr.de/xsd/additional_file.xsd">
    <vTypeDistribution id="vehCAVToCPS">
        <vType accel="1.362" actionStepLength="0.100" carFollowModel="ACC" color="white" decel="2.024" emergencyDecel="9.000" id="vehCAVToCPS0" lcAssertive="0.868" tau="1.225">
            <param key="device.toc.automatedType" value="vehCAVToCPS"/>
            <param key="device.toc.manualType" value="vehLVPS"/>
            <param key="has.toc.device" value="true"/>
            <param key="device.toc.mrmDecel" value="3.000"/>
            <param key="device.toc.recoveryRate" value="0.150"/>
            <param key="device.toc.initialAwareness" value="0.470"/>
            <param key="device.toc.useColorScheme" value="true"/>
            <param key="device.toc.responseTime" value="3.497"/>
        </vType>
        <vType accel="1.868" actionStepLength="0.100" carFollowModel="ACC" color="white" decel="2.343" emergencyDecel="9.000" id="vehCAVToCPS1" lcAssertive="0.965" tau="1.153">
            <param key="device.toc.automatedType" value="vehCAVToCPS"/>
            <param key="device.toc.manualType" value="vehLVPS"/>
            <param key="has.toc.device" value="true"/>
            <param key="device.toc.mrmDecel" value="3.000"/>
            <param key="device.toc.recoveryRate" value="0.348"/>
            <param key="device.toc.initialAwareness" value="0.410"/>
            <param key="device.toc.useColorScheme" value="true"/>
            <param key="device.toc.responseTime" value="6.155"/>
        </vType>
        <vType accel="1.068" actionStepLength="0.100" carFollowModel="ACC" color="white" decel="3.942" emergencyDecel="9.000" id="vehCAVToCPS2" lcAssertive="0.846" tau="1.107">
            <param key="device.toc.automatedType" value="vehCAVToCPS"/>
            <param key="device.toc.manualType" value="vehLVPS"/>
            <param key="has.toc.device" value="true"/>
            <param key="device.toc.mrmDecel" value="3.000"/>
            <param key="device.toc.recoveryRate" value="0.231"/>
            <param key="device.toc.initialAwareness" value="0.432"/>
            <param key="device.toc.useColorScheme" value="true"/>
            <param key="device.toc.responseTime" value="10.943"/>
        </vType>
        <vType accel="1.279" actionStepLength="0.100" carFollowModel="ACC" color="white" decel="3.867" emergencyDecel="9.000" id="vehCAVToCPS3" lcAssertive="0.988" tau="1.214">
            <param key="device.toc.automatedType" value="vehCAVToCPS"/>
            <param key="device.toc.manualType" value="vehLVPS"/>
            <param key="has.toc.device" value="true"/>
            <param key="device.toc.mrmDecel" value="3.000"/>
            <param key="device.toc.recoveryRate" value="0.342"/>
            <param key="device.toc.initialAwareness" value="0.502"/>
            <param key="device.toc.useColorScheme" value="true"/>
            <param key="device.toc.responseTime" value="3.658"/>
        </vType>
        <vType accel="1.721" actionStepLength="0.100" carFollowModel="ACC" color="white" decel="3.978" emergencyDecel="9.000" id="vehCAVToCPS4" lcAssertive="0.952" tau="1.200">
            <param key="device.toc.automatedType" value="vehCAVToCPS"/>
            <param key="device.toc.manualType" value="vehLVPS"/>
            <param key="has.toc.device" value="true"/>
            <param key="device.toc.mrmDecel" value="3.000"/>
            <param key="device.toc.recoveryRate" value="0.104"/>
            <param key="device.toc.initialAwareness" value="0.605"/>
            <param key="device.toc.useColorScheme" value="true"/>
            <param key="device.toc.responseTime" value="5.948"/>
        </vType>
        <vType accel="1.750" actionStepLength="0.100" carFollowModel="ACC" color="white" decel="2.255" emergencyDecel="9.000" id="vehCAVToCPS5" lcAssertive="0.833" tau="1.191">
            <param key="device.toc.automatedType" value="vehCAVToCPS"/>
            <param key="device.toc.manualType" value="vehLVPS"/>
            <param key="has.toc.device" value="true"/>
            <param key="device.toc.mrmDecel" value="3.000"/>
            <param key="device.toc.recoveryRate" value="0.183"/>
            <param key="device.toc.initialAwareness" value="0.234"/>
            <param key="device.toc.useColorScheme" value="true"/>
            <param key="device.toc.responseTime" value="4.484"/>
        </vType>
        <vType accel="0.935" actionStepLength="0.100" carFollowModel="ACC" color="white" decel="2.782" emergencyDecel="9.000" id="vehCAVToCPS6" lcAssertive="0.875" tau="1.141">
            <param key="device.toc.automatedType" value="vehCAVToCPS"/>
            <param key="device.toc.manualType" value="vehLVPS"/>
            <param key="has.toc.device" value="true"/>
            <param key="device.toc.mrmDecel" value="3.000"/>
            <param key="device.toc.recoveryRate" value="0.064"/>
            <param key="device.toc.initialAwareness" value="0.495"/>
            <param key="device.toc.useColorScheme" value="true"/>
            <param key="device.toc.responseTime" value="3.354"/>
        </vType>
        <vType accel="1.314" actionStepLength="0.100" carFollowModel="ACC" color="white" decel="2.296" emergencyDecel="9.000" id="vehCAVToCPS7" lcAssertive="0.897" tau="1.175">
            <param key="device.toc.automatedType" value="vehCAVToCPS"/>
            <param key="device.toc.manualType" value="vehLVPS"/>
            <param key="has.toc.device" value="true"/>
            <param key="device.toc.mrmDecel" value="3.000"/>
            <param key="device.toc.recoveryRate" value="0.283"/>
            <param key="device.toc.initialAwareness" value="0.327"/>
            <param key="device.toc.useColorScheme" value="true"/>
            <param key="device.toc.responseTime" value="9.153"/>
        </vType>
        <vType accel="1.366" actionStepLength="0.100" carFollowModel="ACC" color="white" decel="3.340" emergencyDecel="9.000" id="vehCAVToCPS8" lcAssertive="0.812" tau="1.182">
            <param key="device.toc.automatedType" value="vehCAVToCPS"/>
            <param key="device.toc.manualType" value="vehLVPS"/>
            <param key="has.toc.device" value="true"/>
            <param key="device.toc.mrmDecel" value="3.000"/>
            <param key="device.toc.recoveryRate" value="0.013"/>
            <param key="device.toc.initialAwareness" value="0.386"/>
            <param key="device.toc.useColorScheme" value="true"/>
            <param key="device.toc.responseTime" value="7.100"/>
        </vType>
        <vType accel="1.926" actionStepLength="0.100" carFollowModel="ACC" color="white" decel="2.667" emergencyDecel="9.000" id="vehCAVToCPS9" lcAssertive="0.942" tau="1.250">
            <param key="device.toc.automatedType" value="vehCAVToCPS"/>
            <param key="device.toc.manualType" value="vehLVPS"/>
            <param key="has.toc.device" value="true"/>
            <param key="device.toc.mrmDecel" value="3.000"/>
            <param key="device.toc.recoveryRate" value="0.148"/>
            <param key="device.toc.initialAwareness" value="0.480"/>
            <param key="device.toc.useColorScheme" value="true"/>
            <param key="device.toc.responseTime" value="4.774"/>
        </vType>
        <vType accel="1.969" actionStepLength="0.100" carFollowModel="ACC" color="white" decel="3.313" emergencyDecel="9.000" id="vehCAVToCPS10" lcAssertive="0.932" tau="1.107">
            <param key="device.toc.automatedType" value="vehCAVToCPS"/>
            <param key="device.toc.manualType" value="vehLVPS"/>
            <param key="has.toc.device" value="true"/>
            <param key="device.toc.mrmDecel" value="3.000"/>
            <param key="device.toc.recoveryRate" value="0.173"/>
            <param key="device.toc.initialAwareness" value="0.238"/>
            <param key="device.toc.useColorScheme" value="true"/>
            <param key="device.toc.responseTime" value="6.456"/>
        </vType>
        <vType accel="0.808" actionStepLength="0.100" carFollowModel="ACC" color="white" decel="3.866" emergencyDecel="9.000" id="vehCAVToCPS11" lcAssertive="0.973" tau="1.292">
            <param key="device.toc.automatedType" value="vehCAVToCPS"/>
            <param key="device.toc.manualType" value="vehLVPS"/>
            <param key="has.toc.device" value="true"/>
            <param key="device.toc.mrmDecel" value="3.000"/>
            <param key="device.toc.recoveryRate" value="0.187"/>
            <param key="device.toc.initialAwareness" value="0.156"/>
            <param key="device.toc.useColorScheme" value="true"/>
            <param key="device.toc.responseTime" value="5.730"/>
        </vType>
        <vType accel="1.904" actionStepLength="0.100" carFollowModel="ACC" color="white" decel="3.571" emergencyDecel="9.000" id="vehCAVToCPS12" lcAssertive="0.924" tau="1.255">
            <param key="device.toc.automatedType" value="vehCAVToCPS"/>
            <param key="device.toc.manualType" value="vehLVPS"/>
            <param key="has.toc.device" value="true"/>
            <param key="device.toc.mrmDecel" value="3.000"/>
            <param key="device.toc.recoveryRate" value="0.190"/>
            <param key="device.toc.initialAwareness" value="0.412"/>
            <param key="device.toc.useColorScheme" value="true"/>
            <param key="device.toc.responseTime" value="5.605"/>
        </vType>
        <vType accel="0.947" actionStepLength="0.100" carFollowModel="ACC" color="white" decel="2.762" emergencyDecel="9.000" id="vehCAVToCPS13" lcAssertive="0.871" tau="1.175">
            <param key="device.toc.automatedType" value="vehCAVToCPS"/>
            <param key="device.toc.manualType" value="vehLVPS"/>
            <param key="has.toc.device" value="true"/>
            <param key="device.toc.mrmDecel" value="3.000"/>
            <param key="device.toc.recoveryRate" value="0.242"/>
            <param key="device.toc.initialAwareness" value="0.839"/>
            <param key="device.toc.useColorScheme" value="true"/>
            <param key="device.toc.responseTime" value="4.734"/>
        </vType>
        <vType accel="1.035" actionStepLength="0.100" carFollowModel="ACC" color="white" decel="3.612" emergencyDecel="9.000" id="vehCAVToCPS14" lcAssertive="0.938" tau="1.250">
            <param key="device.toc.automatedType" value="vehCAVToCPS"/>
            <param key="device.toc.manualType" value="vehLVPS"/>
            <param key="has.toc.device" value="true"/>
            <param key="device.toc.mrmDecel" value="3.000"/>
            <param key="device.toc.recoveryRate" value="0.187"/>
            <param key="device.toc.initialAwareness" value="0.403"/>
            <param key="device.toc.useColorScheme" value="true"/>
            <param key="device.toc.responseTime" value="13.585"/>
        </vType>
        <vType accel="1.487" actionStepLength="0.100" carFollowModel="ACC" color="white" decel="3.032" emergencyDecel="9.000" id="vehCAVToCPS15" lcAssertive="0.976" tau="1.117">
            <param key="device.toc.automatedType" value="vehCAVToCPS"/>
            <param key="device.toc.manualType" value="vehLVPS"/>
            <param key="has.toc.device" value="true"/>
            <param key="device.toc.mrmDecel" value="3.000"/>
            <param key="device.toc.recoveryRate" value="0.160"/>
            <param key="device.toc.initialAwareness" value="0.187"/>
            <param key="device.toc.useColorScheme" value="true"/>
            <param key="device.toc.responseTime" value="16.833"/>
        </vType>
        <vType accel="1.800" actionStepLength="0.100" carFollowModel="ACC" color="white" decel="2.424" emergencyDecel="9.000" id="vehCAVToCPS16" lcAssertive="0.938" tau="1.194">
            <param key="device.toc.automatedType" value="vehCAVToCPS"/>
            <param key="device.toc.manualType" value="vehLVPS"/>
            <param key="has.toc.device" value="true"/>
            <param key="device.toc.mrmDecel" value="3.000"/>
            <param key="device.toc.recoveryRate" value="0.080"/>
            <param key="device.toc.initialAwareness" value="0.324"/>
            <param key="device.toc.useColorScheme" value="true"/>
            <param key="device.toc.responseTime" value="2.481"/>
        </vType>
        <vType accel="1.974" actionStepLength="0.100" carFollowModel="ACC" color="white" decel="2.450" emergencyDecel="9.000" id="vehCAVToCPS17" lcAssertive="0.889" tau="1.165">
            <param key="device.toc.automatedType" value="vehCAVToCPS"/>
            <param key="device.toc.manualType" value="vehLVPS"/>
            <param key="has.toc.device" value="true"/>
            <param key="device.toc.mrmDecel" value="3.000"/>
            <param key="device.toc.recoveryRate" value="0.182"/>
            <param key="device.toc.initialAwareness" value="0.360"/>
            <param key="device.toc.useColorScheme" value="true"/>
            <param key="device.toc.responseTime" value="5.157"/>
        </vType>
        <vType accel="1.436" actionStepLength="0.100" carFollowModel="ACC" color="white" decel="3.216" emergencyDecel="9.000" id="vehCAVToCPS18" lcAssertive="0.827" tau="1.112">
            <param key="device.toc.automatedType" value="vehCAVToCPS"/>
            <param key="device.toc.manualType" value="vehLVPS"/>
            <param key="has.toc.device" value="true"/>
            <param key="device.toc.mrmDecel" value="3.000"/>
            <param key="device.toc.recoveryRate" value="0.180"/>
            <param key="device.toc.initialAwareness" value="0.175"/>
            <param key="device.toc.useColorScheme" value="true"/>
            <param key="device.toc.responseTime" value="3.517"/>
        </vType>
        <vType accel="1.037" actionStepLength="0.100" carFollowModel="ACC" color="white" decel="3.140" emergencyDecel="9.000" id="vehCAVToCPS19" lcAssertive="0.948" tau="1.272">
            <param key="device.toc.automatedType" value="vehCAVToCPS"/>
            <param key="device.toc.manualType" value="vehLVPS"/>
            <param key="has.toc.device" value="true"/>
            <param key="device.toc.mrmDecel" value="3.000"/>
            <param key="device.toc.recoveryRate" value="0.457"/>
            <param key="device.toc.initialAwareness" value="0.740"/>
            <param key="device.toc.useColorScheme" value="true"/>
            <param key="device.toc.responseTime" value="2.647"/>
        </vType>
        <vType accel="1.899" actionStepLength="0.100" carFollowModel="ACC" color="white" decel="3.877" emergencyDecel="9.000" id="vehCAVToCPS20" lcAssertive="0.880" tau="1.100">
            <param key="device.toc.automatedType" value="vehCAVToCPS"/>
            <param key="device.toc.manualType" value="vehLVPS"/>
            <param key="has.toc.device" value="true"/>
            <param key="device.toc.mrmDecel" value="3.000"/>
            <param key="device.toc.recoveryRate" value="0.330"/>
            <param key="device.toc.initialAwareness" value="0.751"/>
            <param key="device.toc.useColorScheme" value="true"/>
            <param key="device.toc.responseTime" value="9.228"/>
        </vType>
        <vType accel="1.627" actionStepLength="0.100" carFollowModel="ACC" color="white" decel="2.589" emergencyDecel="9.000" id="vehCAVToCPS21" lcAssertive="0.879" tau="1.202">
            <param key="device.toc.automatedType" value="vehCAVToCPS"/>
            <param key="device.toc.manualType" value="vehLVPS"/>
            <param key="has.toc.device" value="true"/>
            <param key="device.toc.mrmDecel" value="3.000"/>
            <param key="device.toc.recoveryRate" value="0.336"/>
            <param key="device.toc.initialAwareness" value="0.560"/>
            <param key="device.toc.useColorScheme" value="true"/>
            <param key="device.toc.responseTime" value="6.534"/>
        </vType>
        <vType accel="1.419" actionStepLength="0.100" carFollowModel="ACC" color="white" decel="3.923" emergencyDecel="9.000" id="vehCAVToCPS22" lcAssertive="0.947" tau="1.274">
            <param key="device.toc.automatedType" value="vehCAVToCPS"/>
            <param key="device.toc.manualType" value="vehLVPS"/>
            <param key="has.toc.device" value="true"/>
            <param key="device.toc.mrmDecel" value="3.000"/>
            <param key="device.toc.recoveryRate" value="0.248"/>
            <param key="device.toc.initialAwareness" value="0.277"/>
            <param key="device.toc.useColorScheme" value="true"/>
            <param key="device.toc.responseTime" value="4.309"/>
        </vType>
        <vType accel="1.977" actionStepLength="0.100" carFollowModel="ACC" color="white" decel="2.515" emergencyDecel="9.000" id="vehCAVToCPS23" lcAssertive="0.831" tau="1.227">
            <param key="device.toc.automatedType" value="vehCAVToCPS"/>
            <param key="device.toc.manualType" value="vehLVPS"/>
            <param key="has.toc.device" value="true"/>
            <param key="device.toc.mrmDecel" value="3.000"/>
            <param key="device.toc.recoveryRate" value="0.209"/>
            <param key="device.toc.initialAwareness" value="0.120"/>
            <param key="device.toc.useColorScheme" value="true"/>
            <param key="device.toc.responseTime" value="7.776"/>
        </vType>
        <vType accel="1.086" actionStepLength="0.100" carFollowModel="ACC" color="white" decel="2.321" emergencyDecel="9.000" id="vehCAVToCPS24" lcAssertive="0.891" tau="1.190">
            <param key="device.toc.automatedType" value="vehCAVToCPS"/>
            <param key="device.toc.manualType" value="vehLVPS"/>
            <param key="has.toc.device" value="true"/>
            <param key="device.toc.mrmDecel" value="3.000"/>
            <param key="device.toc.recoveryRate" value="0.372"/>
            <param key="device.toc.initialAwareness" value="0.324"/>
            <param key="device.toc.useColorScheme" value="true"/>
            <param key="device.toc.responseTime" value="8.163"/>
        </vType>
        <vType accel="1.570" actionStepLength="0.100" carFollowModel="ACC" color="white" decel="2.297" emergencyDecel="9.000" id="vehCAVToCPS25" lcAssertive="0.933" tau="1.292">
            <param key="device.toc.automatedType" value="vehCAVToCPS"/>
            <param key="device.toc.manualType" value="vehLVPS"/>
            <param key="has.toc.device" value="true"/>
            <param key="device.toc.mrmDecel" value="3.000"/>
            <param key="device.toc.recoveryRate" value="0.215"/>
            <param key="device.toc.initialAwareness" value="0.460"/>
            <param key="device.toc.useColorScheme" value="true"/>
            <param key="device.toc.responseTime" value="5.094"/>
        </vType>
        <vType accel="1.218" actionStepLength="0.100" carFollowModel="ACC" color="white" decel="2.172" emergencyDecel="9.000" id="vehCAVToCPS26" lcAssertive="0.899" tau="1.223">
            <param key="device.toc.automatedType" value="vehCAVToCPS"/>
            <param key="device.toc.manualType" value="vehLVPS"/>
            <param key="has.toc.device" value="true"/>
            <param key="device.toc.mrmDecel" value="3.000"/>
            <param key="device.toc.recoveryRate" value="0.043"/>
            <param key="device.toc.initialAwareness" value="0.597"/>
            <param key="device.toc.useColorScheme" value="true"/>
            <param key="device.toc.responseTime" value="5.758"/>
        </vType>
        <vType accel="1.905" actionStepLength="0.100" carFollowModel="ACC" color="white" decel="2.855" emergencyDecel="9.000" id="vehCAVToCPS27" lcAssertive="0.898" tau="1.159">
            <param key="device.toc.automatedType" value="vehCAVToCPS"/>
            <param key="device.toc.manualType" value="vehLVPS"/>
            <param key="has.toc.device" value="true"/>
            <param key="device.toc.mrmDecel" value="3.000"/>
            <param key="device.toc.recoveryRate" value="0.336"/>
            <param key="device.toc.initialAwareness" value="0.562"/>
            <param key="device.toc.useColorScheme" value="true"/>
            <param key="device.toc.responseTime" value="8.202"/>
        </vType>
        <vType accel="1.387" actionStepLength="0.100" carFollowModel="ACC" color="white" decel="2.661" emergencyDecel="9.000" id="vehCAVToCPS28" lcAssertive="0.956" tau="1.161">
            <param key="device.toc.automatedType" value="vehCAVToCPS"/>
            <param key="device.toc.manualType" value="vehLVPS"/>
            <param key="has.toc.device" value="true"/>
            <param key="device.toc.mrmDecel" value="3.000"/>
            <param key="device.toc.recoveryRate" value="0.405"/>
            <param key="device.toc.initialAwareness" value="0.337"/>
            <param key="device.toc.useColorScheme" value="true"/>
            <param key="device.toc.responseTime" value="4.481"/>
        </vType>
        <vType accel="1.599" actionStepLength="0.100" carFollowModel="ACC" color="white" decel="2.925" emergencyDecel="9.000" id="vehCAVToCPS29" lcAssertive="0.914" tau="1.165">
            <param key="device.toc.automatedType" value="vehCAVToCPS"/>
            <param key="device.toc.manualType" value="vehLVPS"/>
            <param key="has.toc.device" value="true"/>
            <param key="device.toc.mrmDecel" value="3.000"/>
            <param key="device.toc.recoveryRate" value="0.225"/>
            <param key="device.toc.initialAwareness" value="0.641"/>
            <param key="device.toc.useColorScheme" value="true"/>
            <param key="device.toc.responseTime" value="9.270"/>
        </vType>
        <vType accel="1.479" actionStepLength="0.100" carFollowModel="ACC" color="white" decel="3.101" emergencyDecel="9.000" id="vehCAVToCPS30" lcAssertive="0.916" tau="1.207">
            <param key="device.toc.automatedType" value="vehCAVToCPS"/>
            <param key="device.toc.manualType" value="vehLVPS"/>
            <param key="has.toc.device" value="true"/>
            <param key="device.toc.mrmDecel" value="3.000"/>
            <param key="device.toc.recoveryRate" value="0.147"/>
            <param key="device.toc.initialAwareness" value="0.359"/>
            <param key="device.toc.useColorScheme" value="true"/>
            <param key="device.toc.responseTime" value="6.661"/>
        </vType>
        <vType accel="1.582" actionStepLength="0.100" carFollowModel="ACC" color="white" decel="3.647" emergencyDecel="9.000" id="vehCAVToCPS31" lcAssertive="0.870" tau="1.287">
            <param key="device.toc.automatedType" value="vehCAVToCPS"/>
            <param key="device.toc.manualType" value="vehLVPS"/>
            <param key="has.toc.device" value="true"/>
            <param key="device.toc.mrmDecel" value="3.000"/>
            <param key="device.toc.recoveryRate" value="0.357"/>
            <param key="device.toc.initialAwareness" value="0.394"/>
            <param key="device.toc.useColorScheme" value="true"/>
            <param key="device.toc.responseTime" value="4.296"/>
        </vType>
        <vType accel="0.933" actionStepLength="0.100" carFollowModel="ACC" color="white" decel="3.545" emergencyDecel="9.000" id="vehCAVToCPS32" lcAssertive="0.843" tau="1.275">
            <param key="device.toc.automatedType" value="vehCAVToCPS"/>
            <param key="device.toc.manualType" value="vehLVPS"/>
            <param key="has.toc.device" value="true"/>
            <param key="device.toc.mrmDecel" value="3.000"/>
            <param key="device.toc.recoveryRate" value="0.012"/>
            <param key="device.toc.initialAwareness" value="0.802"/>
            <param key="device.toc.useColorScheme" value="true"/>
            <param key="device.toc.responseTime" value="3.591"/>
        </vType>
        <vType accel="1.462" actionStepLength="0.100" carFollowModel="ACC" color="white" decel="3.290" emergencyDecel="9.000" id="vehCAVToCPS33" lcAssertive="0.928" tau="1.136">
            <param key="device.toc.automatedType" value="vehCAVToCPS"/>
            <param key="device.toc.manualType" value="vehLVPS"/>
            <param key="has.toc.device" value="true"/>
            <param key="device.toc.mrmDecel" value="3.000"/>
            <param key="device.toc.recoveryRate" value="0.241"/>
            <param key="device.toc.initialAwareness" value="0.675"/>
            <param key="device.toc.useColorScheme" value="true"/>
            <param key="device.toc.responseTime" value="6.824"/>
        </vType>
        <vType accel="1.863" actionStepLength="0.100" carFollowModel="ACC" color="white" decel="2.759" emergencyDecel="9.000" id="vehCAVToCPS34" lcAssertive="0.836" tau="1.262">
            <param key="device.toc.automatedType" value="vehCAVToCPS"/>
            <param key="device.toc.manualType" value="vehLVPS"/>
            <param key="has.toc.device" value="true"/>
            <param key="device.toc.mrmDecel" value="3.000"/>
            <param key="device.toc.recoveryRate" value="0.309"/>
            <param key="device.toc.initialAwareness" value="0.431"/>
            <param key="device.toc.useColorScheme" value="true"/>
            <param key="device.toc.responseTime" value="2.824"/>
        </vType>
        <vType accel="1.187" actionStepLength="0.100" carFollowModel="ACC" color="white" decel="2.763" emergencyDecel="9.000" id="vehCAVToCPS35" lcAssertive="0.849" tau="1.261">
            <param key="device.toc.automatedType" value="vehCAVToCPS"/>
            <param key="device.toc.manualType" value="vehLVPS"/>
            <param key="has.toc.device" value="true"/>
            <param key="device.toc.mrmDecel" value="3.000"/>
            <param key="device.toc.recoveryRate" value="0.276"/>
            <param key="device.toc.initialAwareness" value="0.514"/>
            <param key="device.toc.useColorScheme" value="true"/>
            <param key="device.toc.responseTime" value="4.369"/>
        </vType>
        <vType accel="1.992" actionStepLength="0.100" carFollowModel="ACC" color="white" decel="2.838" emergencyDecel="9.000" id="vehCAVToCPS36" lcAssertive="0.860" tau="1.143">
            <param key="device.toc.automatedType" value="vehCAVToCPS"/>
            <param key="device.toc.manualType" value="vehLVPS"/>
            <param key="has.toc.device" value="true"/>
            <param key="device.toc.mrmDecel" value="3.000"/>
            <param key="device.toc.recoveryRate" value="0.134"/>
            <param key="device.toc.initialAwareness" value="0.291"/>
            <param key="device.toc.useColorScheme" value="true"/>
            <param key="device.toc.responseTime" value="5.803"/>
        </vType>
        <vType accel="1.670" actionStepLength="0.100" carFollowModel="ACC" color="white" decel="3.650" emergencyDecel="9.000" id="vehCAVToCPS37" lcAssertive="0.830" tau="1.139">
            <param key="device.toc.automatedType" value="vehCAVToCPS"/>
            <param key="device.toc.manualType" value="vehLVPS"/>
            <param key="has.toc.device" value="true"/>
            <param key="device.toc.mrmDecel" value="3.000"/>
            <param key="device.toc.recoveryRate" value="0.309"/>
            <param key="device.toc.initialAwareness" value="0.108"/>
            <param key="device.toc.useColorScheme" value="true"/>
            <param key="device.toc.responseTime" value="9.834"/>
        </vType>
        <vType accel="0.835" actionStepLength="0.100" carFollowModel="ACC" color="white" decel="3.875" emergencyDecel="9.000" id="vehCAVToCPS38" lcAssertive="0.907" tau="1.148">
            <param key="device.toc.automatedType" value="vehCAVToCPS"/>
            <param key="device.toc.manualType" value="vehLVPS"/>
            <param key="has.toc.device" value="true"/>
            <param key="device.toc.mrmDecel" value="3.000"/>
            <param key="device.toc.recoveryRate" value="0.228"/>
            <param key="device.toc.initialAwareness" value="0.541"/>
            <param key="device.toc.useColorScheme" value="true"/>
            <param key="device.toc.responseTime" value="9.940"/>
        </vType>
        <vType accel="1.596" actionStepLength="0.100" carFollowModel="ACC" color="white" decel="3.201" emergencyDecel="9.000" id="vehCAVToCPS39" lcAssertive="0.889" tau="1.194">
            <param key="device.toc.automatedType" value="vehCAVToCPS"/>
            <param key="device.toc.manualType" value="vehLVPS"/>
            <param key="has.toc.device" value="true"/>
            <param key="device.toc.mrmDecel" value="3.000"/>
            <param key="device.toc.recoveryRate" value="0.263"/>
            <param key="device.toc.initialAwareness" value="0.636"/>
            <param key="device.toc.useColorScheme" value="true"/>
            <param key="device.toc.responseTime" value="8.448"/>
        </vType>
        <vType accel="1.125" actionStepLength="0.100" carFollowModel="ACC" color="white" decel="2.746" emergencyDecel="9.000" id="vehCAVToCPS40" lcAssertive="0.867" tau="1.149">
            <param key="device.toc.automatedType" value="vehCAVToCPS"/>
            <param key="device.toc.manualType" value="vehLVPS"/>
            <param key="has.toc.device" value="true"/>
            <param key="device.toc.mrmDecel" value="3.000"/>
            <param key="device.toc.recoveryRate" value="0.184"/>
            <param key="device.toc.initialAwareness" value="0.662"/>
            <param key="device.toc.useColorScheme" value="true"/>
            <param key="device.toc.responseTime" value="8.015"/>
        </vType>
        <vType accel="1.670" actionStepLength="0.100" carFollowModel="ACC" color="white" decel="3.347" emergencyDecel="9.000" id="vehCAVToCPS41" lcAssertive="0.925" tau="1.125">
            <param key="device.toc.automatedType" value="vehCAVToCPS"/>
            <param key="device.toc.manualType" value="vehLVPS"/>
            <param key="has.toc.device" value="true"/>
            <param key="device.toc.mrmDecel" value="3.000"/>
            <param key="device.toc.recoveryRate" value="0.227"/>
            <param key="device.toc.initialAwareness" value="0.498"/>