<additional xmlns:xsi="http://www.w3.org/2001/XMLSchema-instance" xsi:noNamespaceSchemaLocation="http://sumo.dlr.de/xsd/additional_file.xsd">
    <vTypeDistribution id="vehCVToCOS">
        <vType accel="1.362" actionStepLength="0.100" carFollowModel="ACC" color="blue" decel="2.024" emergencyDecel="9.000" id="vehCVToCOS0" lcAssertive="0.468" tau="1.901">
            <param key="device.toc.automatedType" value="vehCVToCOS"/>
            <param key="device.toc.manualType" value="vehLVOS"/>
            <param key="has.toc.device" value="true"/>
            <param key="device.toc.mrmDecel" value="3.000"/>
            <param key="device.toc.recoveryRate" value="0.325"/>
            <param key="device.toc.initialAwareness" value="0.870"/>
            <param key="device.toc.useColorScheme" value="true"/>
            <param key="device.toc.responseTime" value="0.000"/>
        </vType>
        <vType accel="1.868" actionStepLength="0.100" carFollowModel="ACC" color="blue" decel="2.343" emergencyDecel="9.000" id="vehCVToCOS1" lcAssertive="0.405" tau="1.907">
            <param key="device.toc.automatedType" value="vehCVToCOS"/>
            <param key="device.toc.manualType" value="vehLVOS"/>
            <param key="has.toc.device" value="true"/>
            <param key="device.toc.mrmDecel" value="3.000"/>
            <param key="device.toc.recoveryRate" value="0.348"/>
            <param key="device.toc.initialAwareness" value="0.418"/>
            <param key="device.toc.useColorScheme" value="true"/>
            <param key="device.toc.responseTime" value="0.000"/>
        </vType>
        <vType accel="1.810" actionStepLength="0.100" carFollowModel="ACC" color="blue" decel="2.568" emergencyDecel="9.000" id="vehCVToCOS2" lcAssertive="0.544" tau="1.944">
            <param key="device.toc.automatedType" value="vehCVToCOS"/>
            <param key="device.toc.manualType" value="vehLVOS"/>
            <param key="has.toc.device" value="true"/>
            <param key="device.toc.mrmDecel" value="3.000"/>
            <param key="device.toc.recoveryRate" value="0.265"/>
            <param key="device.toc.initialAwareness" value="0.983"/>
            <param key="device.toc.useColorScheme" value="true"/>
            <param key="device.toc.responseTime" value="0.000"/>
        </vType>
        <vType accel="1.279" actionStepLength="0.100" carFollowModel="ACC" color="blue" decel="3.867" emergencyDecel="9.000" id="vehCVToCOS3" lcAssertive="0.567" tau="1.893">
            <param key="device.toc.automatedType" value="vehCVToCOS"/>
            <param key="device.toc.manualType" value="vehLVOS"/>
            <param key="has.toc.device" value="true"/>
            <param key="device.toc.mrmDecel" value="3.000"/>
            <param key="device.toc.recoveryRate" value="0.214"/>
            <param key="device.toc.initialAwareness" value="0.337"/>
            <param key="device.toc.useColorScheme" value="true"/>
            <param key="device.toc.responseTime" value="0.000"/>
        </vType>
        <vType accel="1.149" actionStepLength="0.100" carFollowModel="ACC" color="blue" decel="3.523" emergencyDecel="9.000" id="vehCVToCOS4" lcAssertive="0.483" tau="1.808">
            <param key="device.toc.automatedType" value="vehCVToCOS"/>
            <param key="device.toc.manualType" value="vehLVOS"/>
            <param key="has.toc.device" value="true"/>
            <param key="device.toc.mrmDecel" value="3.000"/>
            <param key="device.toc.recoveryRate" value="0.222"/>
            <param key="device.toc.initialAwareness" value="0.672"/>
            <param key="device.toc.useColorScheme" value="true"/>
            <param key="device.toc.responseTime" value="0.000"/>
        </vType>
        <vType accel="0.825" actionStepLength="0.100" carFollowModel="ACC" color="blue" decel="2.406" emergencyDecel="9.000" id="vehCVToCOS5" lcAssertive="0.444" tau="1.851">
            <param key="device.toc.automatedType" value="vehCVToCOS"/>
            <param key="device.toc.manualType" value="vehLVOS"/>
            <param key="has.toc.device" value="true"/>
            <param key="device.toc.mrmDecel" value="3.000"/>
            <param key="device.toc.recoveryRate" value="0.178"/>
            <param key="device.toc.initialAwareness" value="0.101"/>
            <param key="device.toc.useColorScheme" value="true"/>
            <param key="device.toc.responseTime" value="0.000"/>
        </vType>
        <vType accel="1.254" actionStepLength="0.100" carFollowModel="ACC" color="blue" decel="2.747" emergencyDecel="9.000" id="vehCVToCOS6" lcAssertive="0.404" tau="1.956">
            <param key="device.toc.automatedType" value="vehCVToCOS"/>
            <param key="device.toc.manualType" value="vehLVOS"/>
            <param key="has.toc.device" value="true"/>
            <param key="device.toc.mrmDecel" value="3.000"/>
            <param key="device.toc.recoveryRate" value="0.265"/>
            <param key="device.toc.initialAwareness" value="0.948"/>
            <param key="device.toc.useColorScheme" value="true"/>
            <param key="device.toc.responseTime" value="0.000"/>
        </vType>
        <vType accel="1.591" actionStepLength="0.100" carFollowModel="ACC" color="blue" decel="3.718" emergencyDecel="9.000" id="vehCVToCOS7" lcAssertive="0.482" tau="1.963">
            <param key="device.toc.automatedType" value="vehCVToCOS"/>
            <param key="device.toc.manualType" value="vehLVOS"/>
            <param key="has.toc.device" value="true"/>
            <param key="device.toc.mrmDecel" value="3.000"/>
            <param key="device.toc.recoveryRate" value="0.130"/>
            <param key="device.toc.initialAwareness" value="0.691"/>
            <param key="device.toc.useColorScheme" value="true"/>
            <param key="device.toc.responseTime" value="0.000"/>
        </vType>
        <vType accel="1.787" actionStepLength="0.100" carFollowModel="ACC" color="blue" decel="3.033" emergencyDecel="9.000" id="vehCVToCOS8" lcAssertive="0.550" tau="1.973">
            <param key="device.toc.automatedType" value="vehCVToCOS"/>
            <param key="device.toc.manualType" value="vehLVOS"/>
            <param key="has.toc.device" value="true"/>
            <param key="device.toc.mrmDecel" value="3.000"/>
            <param key="device.toc.recoveryRate" value="0.234"/>
            <param key="device.toc.initialAwareness" value="0.435"/>
            <param key="device.toc.useColorScheme" value="true"/>
            <param key="device.toc.responseTime" value="0.000"/>
        </vType>
        <vType accel="1.926" actionStepLength="0.100" carFollowModel="ACC" color="blue" decel="2.667" emergencyDecel="9.000" id="vehCVToCOS9" lcAssertive="0.426" tau="1.897">
            <param key="device.toc.automatedType" value="vehCVToCOS"/>
            <param key="device.toc.manualType" value="vehLVOS"/>
            <param key="has.toc.device" value="true"/>
            <param key="device.toc.mrmDecel" value="3.000"/>
            <param key="device.toc.recoveryRate" value="0.289"/>
            <param key="device.toc.initialAwareness" value="0.880"/>
            <param key="device.toc.useColorScheme" value="true"/>
            <param key="device.toc.responseTime" value="0.000"/>
        </vType>
        <vType accel="1.969" actionStepLength="0.100" carFollowModel="ACC" color="blue" decel="3.313" emergencyDecel="9.000" id="vehCVToCOS10" lcAssertive="0.482" tau="1.814">
            <param key="device.toc.automatedType" value="vehCVToCOS"/>
            <param key="device.toc.manualType" value="vehLVOS"/>
            <param key="has.toc.device" value="true"/>
            <param key="device.toc.mrmDecel" value="3.000"/>
            <param key="device.toc.recoveryRate" value="0.173"/>
            <param key="device.toc.initialAwareness" value="0.638"/>
            <param key="device.toc.useColorScheme" value="true"/>
            <param key="device.toc.responseTime" value="0.000"/>
        </vType>
        <vType accel="0.808" actionStepLength="0.100" carFollowModel="ACC" color="blue" decel="3.866" emergencyDecel="9.000" id="vehCVToCOS11" lcAssertive="0.458" tau="1.975">
            <param key="device.toc.automatedType" value="vehCVToCOS"/>
            <param key="device.toc.manualType" value="vehLVOS"/>
            <param key="has.toc.device" value="true"/>
            <param key="device.toc.mrmDecel" value="3.000"/>
            <param key="device.toc.recoveryRate" value="0.352"/>
            <param key="device.toc.initialAwareness" value="0.556"/>
            <param key="device.toc.useColorScheme" value="true"/>
            <param key="device.toc.responseTime" value="0.000"/>
        </vType>
        <vType accel="1.904" actionStepLength="0.100" carFollowModel="ACC" color="blue" decel="3.571" emergencyDecel="9.000" id="vehCVToCOS12" lcAssertive="0.453" tau="1.980">
            <param key="device.toc.automatedType" value="vehCVToCOS"/>
            <param key="device.toc.manualType" value="vehLVOS"/>
            <param key="has.toc.device" value="true"/>
            <param key="device.toc.mrmDecel" value="3.000"/>
            <param key="device.toc.recoveryRate" value="0.266"/>
            <param key="device.toc.initialAwareness" value="0.812"/>
            <param key="device.toc.useColorScheme" value="true"/>
            <param key="device.toc.responseTime" value="0.000"/>
        </vType>
        <vType accel="0.947" actionStepLength="0.100" carFollowModel="ACC" color="blue" decel="2.762" emergencyDecel="9.000" id="vehCVToCOS13" lcAssertive="0.424" tau="1.950">
            <param key="device.toc.automatedType" value="vehCVToCOS"/>
            <param key="device.toc.manualType" value="vehLVOS"/>
            <param key="has.toc.device" value="true"/>
            <param key="device.toc.mrmDecel" value="3.000"/>
            <param key="device.toc.recoveryRate" value="0.242"/>
            <param key="device.toc.initialAwareness" value="0.369"/>
            <param key="device.toc.useColorScheme" value="true"/>
            <param key="device.toc.responseTime" value="0.000"/>
        </vType>
        <vType accel="1.374" actionStepLength="0.100" carFollowModel="ACC" color="blue" decel="2.535" emergencyDecel="9.000" id="vehCVToCOS14" lcAssertive="0.534" tau="1.943">
            <param key="device.toc.automatedType" value="vehCVToCOS"/>
            <param key="device.toc.manualType" value="vehLVOS"/>
            <param key="has.toc.device" value="true"/>
            <param key="device.toc.mrmDecel" value="3.000"/>
            <param key="device.toc.recoveryRate" value="0.250"/>
            <param key="device.toc.initialAwareness" value="0.883"/>
            <param key="device.toc.useColorScheme" value="true"/>
            <param key="device.toc.responseTime" value="0.000"/>
        </vType>
        <vType accel="1.487" actionStepLength="0.100" carFollowModel="ACC" color="blue" decel="3.032" emergencyDecel="9.000" id="vehCVToCOS15" lcAssertive="0.576" tau="1.833">
            <param key="device.toc.automatedType" value="vehCVToCOS"/>
            <param key="device.toc.manualType" value="vehLVOS"/>
            <param key="has.toc.device" value="true"/>
            <param key="device.toc.mrmDecel" value="3.000"/>
            <param key="device.toc.recoveryRate" value="0.160"/>
            <param key="device.toc.initialAwareness" value="0.587"/>
            <param key="device.toc.useColorScheme" value="true"/>
            <param key="device.toc.responseTime" value="0.000"/>
        </vType>
        <vType accel="1.800" actionStepLength="0.100" carFollowModel="ACC" color="blue" decel="2.424" emergencyDecel="9.000" id="vehCVToCOS16" lcAssertive="0.538" tau="1.988">
            <param key="device.toc.automatedType" value="vehCVToCOS"/>
            <param key="device.toc.manualType" value="vehLVOS"/>
            <param key="has.toc.device" value="true"/>
            <param key="device.toc.mrmDecel" value="3.000"/>
            <param key="device.toc.recoveryRate" value="0.080"/>
            <param key="device.toc.initialAwareness" value="0.724"/>
            <param key="device.toc.useColorScheme" value="true"/>
            <param key="device.toc.responseTime" value="0.000"/>
        </vType>
        <vType accel="1.974" actionStepLength="0.100" carFollowModel="ACC" color="blue" decel="2.450" emergencyDecel="9.000" id="vehCVToCOS17" lcAssertive="0.439" tau="1.931">
            <param key="device.toc.automatedType" value="vehCVToCOS"/>
            <param key="device.toc.manualType" value="vehLVOS"/>
            <param key="has.toc.device" value="true"/>
            <param key="device.toc.mrmDecel" value="3.000"/>
            <param key="device.toc.recoveryRate" value="0.182"/>
            <param key="device.toc.initialAwareness" value="0.760"/>
            <param key="device.toc.useColorScheme" value="true"/>
            <param key="device.toc.responseTime" value="0.000"/>
        </vType>
        <vType accel="1.303" actionStepLength="0.100" carFollowModel="ACC" color="blue" decel="2.936" emergencyDecel="9.000" id="vehCVToCOS18" lcAssertive="0.458" tau="1.977">
            <param key="device.toc.automatedType" value="vehCVToCOS"/>
            <param key="device.toc.manualType" value="vehLVOS"/>
            <param key="has.toc.device" value="true"/>
            <param key="device.toc.mrmDecel" value="3.000"/>
            <param key="device.toc.recoveryRate" value="0.112"/>
            <param key="device.toc.initialAwareness" value="0.765"/>
            <param key="device.toc.useColorScheme" value="true"/>
            <param key="device.toc.responseTime" value="0.000"/>
        </vType>
        <vType accel="1.037" actionStepLength="0.100" carFollowModel="ACC" color="blue" decel="3.140" emergencyDecel="9.000" id="vehCVToCOS19" lcAssertive="0.548" tau="1.853">
            <param key="device.toc.automatedType" value="vehCVToCOS"/>
            <param key="device.toc.manualType" value="vehLVOS"/>
            <param key="has.toc.device" value="true"/>
            <param key="device.toc.mrmDecel" value="3.000"/>
            <param key="device.toc.recoveryRate" value="0.272"/>
            <param key="device.toc.initialAwareness" value="0.265"/>
            <param key="device.toc.useColorScheme" value="true"/>
            <param key="device.toc.responseTime" value="0.000"/>
        </vType>
        <vType accel="1.899" actionStepLength="0.100" carFollowModel="ACC" color="blue" decel="3.877" emergencyDecel="9.000" id="vehCVToCOS20" lcAssertive="0.480" tau="1.800">
            <param key="device.toc.automatedType" value="vehCVToCOS"/>
            <param key="device.toc.manualType" value="vehLVOS"/>
            <param key="has.toc.device" value="true"/>
            <param key="device.toc.mrmDecel" value="3.000"/>
            <param key="device.toc.recoveryRate" value="0.330"/>
            <param key="device.toc.initialAwareness" value="0.923"/>
            <param key="device.toc.useColorScheme" value="true"/>
            <param key="device.toc.responseTime" value="0.000"/>
        </vType>
        <vType accel="1.345" actionStepLength="0.100" carFollowModel="ACC" color="blue" decel="2.786" emergencyDecel="9.000" id="vehCVToCOS21" lcAssertive="0.548" tau="1.918">
            <param key="device.toc.automatedType" value="vehCVToCOS"/>
            <param key="device.toc.manualType" value="vehLVOS"/>
            <param key="has.toc.device" value="true"/>
            <param key="device.toc.mrmDecel" value="3.000"/>
            <param key="device.toc.recoveryRate" value="0.287"/>
            <param key="device.toc.initialAwareness" value="0.921"/>
            <param key="device.toc.useColorScheme" value="true"/>
            <param key="device.toc.responseTime" value="0.000"/>
        </vType>
        <vType accel="1.424" actionStepLength="0.100" carFollowModel="ACC" color="blue" decel="2.103" emergencyDecel="9.000" id="vehCVToCOS22" lcAssertive="0.527" tau="1.984">
            <param key="device.toc.automatedType" value="vehCVToCOS"/>
            <param key="device.toc.manualType" value="vehLVOS"/>
            <param key="has.toc.device" value="true"/>
            <param key="device.toc.mrmDecel" value="3.000"/>
            <param key="device.toc.recoveryRate" value="0.292"/>
            <param key="device.toc.initialAwareness" value="0.842"/>
            <param key="device.toc.useColorScheme" value="true"/>
            <param key="device.toc.responseTime" value="0.000"/>
        </vType>
        <vType accel="1.759" actionStepLength="0.100" carFollowModel="ACC" color="blue" decel="2.311" emergencyDecel="9.000" id="vehCVToCOS23" lcAssertive="0.459" tau="1.903">
            <param key="device.toc.automatedType" value="vehCVToCOS"/>
            <param key="device.toc.manualType" value="vehLVOS"/>
            <param key="has.toc.device" value="true"/>
            <param key="device.toc.mrmDecel" value="3.000"/>
            <param key="device.toc.recoveryRate" value="0.140"/>
            <param key="device.toc.initialAwareness" value="0.670"/>
            <param key="device.toc.useColorScheme" value="true"/>
            <param key="device.toc.responseTime" value="0.000"/>
        </vType>
        <vType accel="1.888" actionStepLength="0.100" carFollowModel="ACC" color="blue" decel="2.906" emergencyDecel="9.000" id="vehCVToCOS24" lcAssertive="0.515" tau="1.864">
            <param key="device.toc.automatedType" value="vehCVToCOS"/>
            <param key="device.toc.manualType" value="vehLVOS"/>
            <param key="has.toc.device" value="true"/>
            <param key="device.toc.mrmDecel" value="3.000"/>
            <param key="device.toc.recoveryRate" value="0.208"/>
            <param key="device.toc.initialAwareness" value="0.977"/>
            <param key="device.toc.useColorScheme" value="true"/>
            <param key="device.toc.responseTime" value="0.000"/>
        </vType>
        <vType accel="0.865" actionStepLength="0.100" carFollowModel="ACC" color="blue" decel="3.326" emergencyDecel="9.000" id="vehCVToCOS25" lcAssertive="0.564" tau="1.859">
            <param key="device.toc.automatedType" value="vehCVToCOS"/>
            <param key="device.toc.manualType" value="vehLVOS"/>
            <param key="has.toc.device" value="true"/>
            <param key="device.toc.mrmDecel" value="3.000"/>
            <param key="device.toc.recoveryRate" value="0.253"/>
            <param key="device.toc.initialAwareness" value="0.768"/>
            <param key="device.toc.useColorScheme" value="true"/>
            <param key="device.toc.responseTime" value="0.000"/>
        </vType>
        <vType accel="1.086" actionStepLength="0.100" carFollowModel="ACC" color="blue" decel="2.988" emergencyDecel="9.000" id="vehCVToCOS26" lcAssertive="0.459" tau="1.944">
            <param key="device.toc.automatedType" value="vehCVToCOS"/>
            <param key="device.toc.manualType" value="vehLVOS"/>
            <param key="has.toc.device" value="true"/>
            <param key="device.toc.mrmDecel" value="3.000"/>
            <param key="device.toc.recoveryRate" value="0.477"/>
            <param key="device.toc.initialAwareness" value="0.283"/>
            <param key="device.toc.useColorScheme" value="true"/>
            <param key="device.toc.responseTime" value="0.000"/>
        </vType>
        <vType accel="1.901" actionStepLength="0.100" carFollowModel="ACC" color="blue" decel="2.984" emergencyDecel="9.000" id="vehCVToCOS27" lcAssertive="0.405" tau="1.971">
            <param key="device.toc.automatedType" value="vehCVToCOS"/>
            <param key="device.toc.manualType" value="vehLVOS"/>
            <param key="has.toc.device" value="true"/>
            <param key="device.toc.mrmDecel" value="3.000"/>
            <param key="device.toc.recoveryRate" value="0.287"/>
            <param key="device.toc.initialAwareness" value="0.583"/>
            <param key="device.toc.useColorScheme" value="true"/>
            <param key="device.toc.responseTime" value="0.000"/>
        </vType>
        <vType accel="1.625" actionStepLength="0.100" carFollowModel="ACC" color="blue" decel="2.160" emergencyDecel="9.000" id="vehCVToCOS28" lcAssertive="0.465" tau="1.977">
            <param key="device.toc.automatedType" value="vehCVToCOS"/>
            <param key="device.toc.manualType" value="vehLVOS"/>
            <param key="has.toc.device" value="true"/>
            <param key="device.toc.mrmDecel" value="3.000"/>
            <param key="device.toc.recoveryRate" value="0.166"/>
            <param key="device.toc.initialAwareness" value="0.868"/>
            <param key="device.toc.useColorScheme" value="true"/>
            <param key="device.toc.responseTime" value="0.000"/>
        </vType>
        <vType accel="1.643" actionStepLength="0.100" carFollowModel="ACC" color="blue" decel="3.074" emergencyDecel="9.000" id="vehCVToCOS29" lcAssertive="0.498" tau="1.985">
            <param key="device.toc.automatedType" value="vehCVToCOS"/>
            <param key="device.toc.manualType" value="vehLVOS"/>
            <param key="has.toc.device" value="true"/>
            <param key="device.toc.mrmDecel" value="3.000"/>
            <param key="device.toc.recoveryRate" value="0.314"/>
            <param key="device.toc.initialAwareness" value="0.541"/>
            <param key="device.toc.useColorScheme" value="true"/>
            <param key="device.toc.responseTime" value="0.000"/>
        </vType>
        <vType accel="1.661" actionStepLength="0.100" carFollowModel="ACC" color="blue" decel="3.870" emergencyDecel="9.000" id="vehCVToCOS30" lcAssertive="0.508" tau="1.977">
            <param key="device.toc.automatedType" value="vehCVToCOS"/>
            <param key="device.toc.manualType" value="vehLVOS"/>
            <param key="has.toc.device" value="true"/>
            <param key="device.toc.mrmDecel" value="3.000"/>
            <param key="device.toc.recoveryRate" value="0.023"/>
            <param key="device.toc.initialAwareness" value="0.221"/>
            <param key="device.toc.useColorScheme" value="true"/>
            <param key="device.toc.responseTime" value="0.000"/>
        </vType>
        <vType accel="1.199" actionStepLength="0.100" carFollowModel="ACC" color="blue" decel="3.748" emergencyDecel="9.000" id="vehCVToCOS31" lcAssertive="0.443" tau="1.820">
            <param key="device.toc.automatedType" value="vehCVToCOS"/>
            <param key="device.toc.manualType" value="vehLVOS"/>
            <param key="has.toc.device" value="true"/>
            <param key="device.toc.mrmDecel" value="3.000"/>
            <param key="device.toc.recoveryRate" value="0.373"/>
            <param key="device.toc.initialAwareness" value="0.136"/>
            <param key="device.toc.useColorScheme" value="true"/>
            <param key="device.toc.responseTime" value="0.000"/>
        </vType>
        <vType accel="0.858" actionStepLength="0.100" carFollowModel="ACC" color="blue" decel="3.414" emergencyDecel="9.000" id="vehCVToCOS32" lcAssertive="0.496" tau="1.887">
            <param key="device.toc.automatedType" value="vehCVToCOS"/>
            <param key="device.toc.manualType" value="vehLVOS"/>
            <param key="has.toc.device" value="true"/>
            <param key="device.toc.mrmDecel" value="3.000"/>
            <param key="device.toc.recoveryRate" value="0.095"/>
            <param key="device.toc.initialAwareness" value="0.448"/>
            <param key="device.toc.useColorScheme" value="true"/>
            <param key="device.toc.responseTime" value="0.000"/>
        </vType>
        <vType accel="1.441" actionStepLength="0.100" carFollowModel="ACC" color="blue" decel="3.284" emergencyDecel="9.000" id="vehCVToCOS33" lcAssertive="0.536" tau="1.822">
            <param key="device.toc.automatedType" value="vehCVToCOS"/>
            <param key="device.toc.manualType" value="vehLVOS"/>
            <param key="has.toc.device" value="true"/>
            <param key="device.toc.mrmDecel" value="3.000"/>
            <param key="device.toc.recoveryRate" value="0.325"/>
            <param key="device.toc.initialAwareness" value="0.885"/>
            <param key="device.toc.useColorScheme" value="true"/>
            <param key="device.toc.responseTime" value="0.000"/>
        </vType>
        <vType accel="0.859" actionStepLength="0.100" carFollowModel="ACC" color="blue" decel="3.612" emergencyDecel="9.000" id="vehCVToCOS34" lcAssertive="0.469" tau="1.952">
            <param key="device.toc.automatedType" value="vehCVToCOS"/>
            <param key="device.toc.manualType" value="vehLVOS"/>
            <param key="has.toc.device" value="true"/>
            <param key="device.toc.mrmDecel" value="3.000"/>
            <param key="device.toc.recoveryRate" value="0.244"/>
            <param key="device.toc.initialAwareness" value="0.929"/>
            <param key="device.toc.useColorScheme" value="true"/>
            <param key="device.toc.responseTime" value="0.000"/>
        </vType>
        <vType accel="0.990" actionStepLength="0.100" carFollowModel="ACC" color="blue" decel="2.426" emergencyDecel="9.000" id="vehCVToCOS35" lcAssertive="0.549" tau="1.953">
            <param key="device.toc.automatedType" value="vehCVToCOS"/>
            <param key="device.toc.manualType" value="vehLVOS"/>
            <param key="has.toc.device" value="true"/>
            <param key="device.toc.mrmDecel" value="3.000"/>
            <param key="device.toc.recoveryRate" value="0.271"/>
            <param key="device.toc.initialAwareness" value="0.502"/>
            <param key="device.toc.useColorScheme" value="true"/>
            <param key="device.toc.responseTime" value="0.000"/>
        </vType>
        <vType accel="1.101" actionStepLength="0.100" carFollowModel="ACC" color="blue" decel="2.597" emergencyDecel="9.000" id="vehCVToCOS36" lcAssertive="0.578" tau="1.968">
            <param key="device.toc.automatedType" value="vehCVToCOS"/>
            <param key="device.toc.manualType" value="vehLVOS"/>
            <param key="has.toc.device" value="true"/>
            <param key="device.toc.mrmDecel" value="3.000"/>
            <param key="device.toc.recoveryRate" value="0.197"/>
            <param key="device.toc.initialAwareness" value="0.518"/>
            <param key="device.toc.useColorScheme" value="true"/>
            <param key="device.toc.responseTime" value="0.000"/>
        </vType>
        <vType accel="0.799" actionStepLength="0.100" carFollowModel="ACC" color="blue" decel="2.482" emergencyDecel="9.000" id="vehCVToCOS37" lcAssertive="0.434" tau="1.872">
            <param key="device.toc.automatedType" value="vehCVToCOS"/>
            <param key="device.toc.manualType" value="vehLVOS"/>
            <param key="has.toc.device" value="true"/>
            <param key="device.toc.mrmDecel" value="3.000"/>
            <param key="device.toc.recoveryRate" value="0.294"/>
            <param key="device.toc.initialAwareness" value="0.785"/>
            <param key="device.toc.useColorScheme" value="true"/>
            <param key="device.toc.responseTime" value="0.000"/>
        </vType>
        <vType accel="1.596" actionStepLength="0.100" carFollowModel="ACC" color="blue" decel="3.201" emergencyDecel="9.000" id="vehCVToCOS38" lcAssertive="0.489" tau="1.988">
            <param key="device.toc.automatedType" value="vehCVToCOS"/>
            <param key="device.toc.manualType" value="vehLVOS"/>
            <param key="has.toc.device" value="true"/>
            <param key="device.toc.mrmDecel" value="3.000"/>
            <param key="device.toc.recoveryRate" value="0.263"/>
            <param key="device.toc.initialAwareness" value="0.845"/>
            <param key="device.toc.useColorScheme" value="true"/>
            <param key="device.toc.responseTime" value="0.000"/>
        </vType>
        <vType accel="1.125" actionStepLength="0.100" carFollowModel="ACC" color="blue" decel="2.746" emergencyDecel="9.000" id="vehCVToCOS39" lcAssertive="0.467" tau="1.899">
            <param key="device.toc.automatedType" value="vehCVToCOS"/>
            <param key="device.toc.manualType" value="vehLVOS"/>
            <param key="has.toc.device" value="true"/>
            <param key="device.toc.mrmDecel" value="3.000"/>
            <param key="device.toc.recoveryRate" value="0.184"/>
            <param key="device.toc.initialAwareness" value="0.802"/>
            <param key="device.toc.useColorScheme" value="true"/>
            <param key="device.toc.responseTime" value="0.000"/>
        </vType>
        <vType accel="1.670" actionStepLength="0.100" carFollowModel="ACC" color="blue" decel="3.347" emergencyDecel="9.000" id="vehCVToCOS40" lcAssertive="0.566" tau="1.850">
            <param key="device.toc.automatedType" value="vehCVToCOS"/>
            <param key="device.toc.manualType" value="vehLVOS"/>
            <param key="has.toc.device" value="true"/>
            <param key="device.toc.mrmDecel" value="3.000"/>
            <param key="device.toc.recoveryRate" value="0.227"/>
            <param key="device.toc.initialAwareness" value="0.413"/>
            <param key="device.toc.useColorScheme" value="true"/>
            <param key="device.toc.responseTime" value="0.000"/>
        </vType>
        <vType accel="1.302" actionStepLength="0.100" carFollowModel="ACC" color="blue" decel="3.236" emergencyDecel="9.000" id="vehCVToCOS41" lcAssertive="0.479" tau="1.903">
            <param key="device.toc.automatedType" value="vehCVToCOS"/>
            <param key="device.toc.manualType" value="vehLVOS"/>
            <param key="has.toc.device" value="true"/>
            <param key="device.toc.mrmDecel" value="3.000"/>
            <param key="device.toc.recoveryRate" value="0.250"/>
            <param key="device.toc.initialAwareness" value="0.861"/>
            <param key="device.toc.useColorScheme" value="true"/>
            <param key="device.toc.responseTime" value="0.000"/>
        </vType>