<additional xmlns:xsi="http://www.w3.org/2001/XMLSchema-instance" xsi:noNamespaceSchemaLocation="http://sumo.dlr.de/xsd/additional_file.xsd">
   <inductionLoop id="WC" lane="WC_0" pos="50" freq="1" file="../../detector.xml"/>
</additional>
