<additional>
	
	<inductionLoop id="myDetector1" lane="e0_0" pos="100" freq="300" file="{detectorOutput}"/>
	<inductionLoop id="myDetector2" lane="e0_1" pos="100" freq="300" file="{detectorOutput}"/>
	<inductionLoop id="myDetector3" lane="e0_0" pos="200" freq="300" file="{detectorOutput}"/>
	<inductionLoop id="myDetector4" lane="e0_1" pos="200" freq="300" file="{detectorOutput}"/>
	<inductionLoop id="myDetector5" lane="e0_0" pos="300" freq="300" file="{detectorOutput}"/>
	<inductionLoop id="myDetector6" lane="e0_1" pos="300" freq="300" file="{detectorOutput}"/>
	<inductionLoop id="myDetector7" lane="e0_0" pos="400" freq="300" file="{detectorOutput}"/>
	<inductionLoop id="myDetector8" lane="e0_1" pos="400" freq="300" file="{detectorOutput}"/>
	<inductionLoop id="myDetector9" lane="e0_0" pos="500" freq="300" file="{detectorOutput}"/>
	<inductionLoop id="myDetector10" lane="e0_1" pos="500" freq="300" file="{detectorOutput}"/>
	<inductionLoop id="myDetector11" lane="e0_0" pos="600" freq="300" file="{detectorOutput}"/>
	<inductionLoop id="myDetector12" lane="e0_1" pos="600" freq="300" file="{detectorOutput}"/>
	<inductionLoop id="myDetector13" lane="e0_0" pos="700" freq="300" file="{detectorOutput}"/>
	<inductionLoop id="myDetector14" lane="e0_1" pos="700" freq="300" file="{detectorOutput}"/>
	<inductionLoop id="myDetector15" lane="e0_0" pos="800" freq="300" file="{detectorOutput}"/>
	<inductionLoop id="myDetector16" lane="e0_1" pos="800" freq="300" file="{detectorOutput}"/>
	<inductionLoop id="myDetector17" lane="e0_0" pos="900" freq="300" file="{detectorOutput}"/>
	<inductionLoop id="myDetector18" lane="e0_1" pos="900" freq="300" file="{detectorOutput}"/>
	<inductionLoop id="myDetector19" lane="e0_0" pos="1000" freq="300" file="{detectorOutput}"/>
	<inductionLoop id="myDetector20" lane="e0_1" pos="1000" freq="300" file="{detectorOutput}"/>
	<inductionLoop id="myDetector21" lane="e0_0" pos="1100" freq="300" file="{detectorOutput}"/>
	<inductionLoop id="myDetector22" lane="e0_1" pos="1100" freq="300" file="{detectorOutput}"/>
	<inductionLoop id="myDetector23" lane="e0_0" pos="1200" freq="300" file="{detectorOutput}"/>
	<inductionLoop id="myDetector24" lane="e0_1" pos="1200" freq="300" file="{detectorOutput}"/>
	<inductionLoop id="myDetector25" lane="e0_0" pos="1300" freq="300" file="{detectorOutput}"/>
	<inductionLoop id="myDetector26" lane="e0_1" pos="1300" freq="300" file="{detectorOutput}"/>
	<inductionLoop id="myDetector27" lane="e0_0" pos="1400" freq="300" file="{detectorOutput}"/>
	<inductionLoop id="myDetector28" lane="e0_1" pos="1400" freq="300" file="{detectorOutput}"/>
	<inductionLoop id="myDetector29" lane="e0_0" pos="1500" freq="300" file="{detectorOutput}"/>
	<inductionLoop id="myDetector30" lane="e0_1" pos="1500" freq="300" file="{detectorOutput}"/>
	<inductionLoop id="myDetector31" lane="e0_0" pos="1600" freq="300" file="{detectorOutput}"/>
	<inductionLoop id="myDetector32" lane="e0_1" pos="1600" freq="300" file="{detectorOutput}"/>
	<inductionLoop id="myDetector33" lane="e0_0" pos="1700" freq="300" file="{detectorOutput}"/>
	<inductionLoop id="myDetector34" lane="e0_1" pos="1700" freq="300" file="{detectorOutput}"/>
	<inductionLoop id="myDetector35" lane="e0_0" pos="1800" freq="300" file="{detectorOutput}"/>
	<inductionLoop id="myDetector36" lane="e0_1" pos="1800" freq="300" file="{detectorOutput}"/>
	<inductionLoop id="myDetector37" lane="e0_0" pos="1900" freq="300" file="{detectorOutput}"/>
	<inductionLoop id="myDetector38" lane="e0_1" pos="1900" freq="300" file="{detectorOutput}"/>
	<inductionLoop id="myDetector39" lane="e0_0" pos="2000" freq="300" file="{detectorOutput}"/>
	<inductionLoop id="myDetector40" lane="e0_1" pos="2000" freq="300" file="{detectorOutput}"/>
	<inductionLoop id="myDetector41" lane="e0_0" pos="2100" freq="300" file="{detectorOutput}"/>
	<inductionLoop id="myDetector42" lane="e0_1" pos="2100" freq="300" file="{detectorOutput}"/>
	<inductionLoop id="myDetector43" lane="e0_0" pos="2200" freq="300" file="{detectorOutput}"/>
	<inductionLoop id="myDetector44" lane="e0_1" pos="2200" freq="300" file="{detectorOutput}"/>
	<inductionLoop id="myDetector45" lane="e0_0" pos="2300" freq="300" file="{detectorOutput}"/>
	<inductionLoop id="myDetector46" lane="e0_1" pos="2300" freq="300" file="{detectorOutput}"/>
	<inductionLoop id="myDetector47" lane="e0_0" pos="2400" freq="300" file="{detectorOutput}"/>
	<inductionLoop id="myDetector48" lane="e0_1" pos="2400" freq="300" file="{detectorOutput}"/>
	<inductionLoop id="myDetector49" lane="e0_0" pos="2500" freq="300" file="{detectorOutput}"/>
	<inductionLoop id="myDetector50" lane="e0_1" pos="2500" freq="300" file="{detectorOutput}"/>
	<inductionLoop id="myDetector51" lane="e0_0" pos="2600" freq="300" file="{detectorOutput}"/>
	<inductionLoop id="myDetector52" lane="e0_1" pos="2600" freq="300" file="{detectorOutput}"/>
	<inductionLoop id="myDetector53" lane="e0_0" pos="2700" freq="300" file="{detectorOutput}"/>
	<inductionLoop id="myDetector54" lane="e0_1" pos="2700" freq="300" file="{detectorOutput}"/>
	<inductionLoop id="myDetector55" lane="e0_0" pos="2800" freq="300" file="{detectorOutput}"/>
	<inductionLoop id="myDetector56" lane="e0_1" pos="2800" freq="300" file="{detectorOutput}"/>
	<inductionLoop id="myDetector57" lane="e0_0" pos="2900" freq="300" file="{detectorOutput}"/>
	<inductionLoop id="myDetector58" lane="e0_1" pos="2900" freq="300" file="{detectorOutput}"/>
	<inductionLoop id="myDetector59" lane="e0_0" pos="3000" freq="300" file="{detectorOutput}"/>
	<inductionLoop id="myDetector60" lane="e0_1" pos="3000" freq="300" file="{detectorOutput}"/>
	<inductionLoop id="myDetector61" lane="e0_0" pos="3100" freq="300" file="{detectorOutput}"/>
	<inductionLoop id="myDetector62" lane="e0_1" pos="3100" freq="300" file="{detectorOutput}"/>
	<inductionLoop id="myDetector63" lane="e0_0" pos="3200" freq="300" file="{detectorOutput}"/>
	<inductionLoop id="myDetector64" lane="e0_1" pos="3200" freq="300" file="{detectorOutput}"/>
	<inductionLoop id="myDetector65" lane="e0_0" pos="3300" freq="300" file="{detectorOutput}"/>
	<inductionLoop id="myDetector66" lane="e0_1" pos="3300" freq="300" file="{detectorOutput}"/>
	<inductionLoop id="myDetector67" lane="e0_0" pos="3400" freq="300" file="{detectorOutput}"/>
	<inductionLoop id="myDetector68" lane="e0_1" pos="3400" freq="300" file="{detectorOutput}"/>
	<inductionLoop id="myDetector69" lane="e0_0" pos="3500" freq="300" file="{detectorOutput}"/>
	<inductionLoop id="myDetector70" lane="e0_1" pos="3500" freq="300" file="{detectorOutput}"/>
	<inductionLoop id="myDetector71" lane="e0_0" pos="3600" freq="300" file="{detectorOutput}"/>
	<inductionLoop id="myDetector72" lane="e0_1" pos="3600" freq="300" file="{detectorOutput}"/>
	<inductionLoop id="myDetector73" lane="e0_0" pos="3700" freq="300" file="{detectorOutput}"/>
	<inductionLoop id="myDetector74" lane="e0_1" pos="3700" freq="300" file="{detectorOutput}"/>
	<inductionLoop id="myDetector75" lane="e0_0" pos="3800" freq="300" file="{detectorOutput}"/>
	<inductionLoop id="myDetector76" lane="e0_1" pos="3800" freq="300" file="{detectorOutput}"/>
	<inductionLoop id="myDetector77" lane="e0_0" pos="3900" freq="300" file="{detectorOutput}"/>
	<inductionLoop id="myDetector78" lane="e0_1" pos="3900" freq="300" file="{detectorOutput}"/>
	<inductionLoop id="myDetector79" lane="e0_0" pos="4000" freq="300" file="{detectorOutput}"/>
	<inductionLoop id="myDetector80" lane="e0_1" pos="4000" freq="300" file="{detectorOutput}"/>
	<inductionLoop id="myDetector81" lane="e0_0" pos="4100" freq="300" file="{detectorOutput}"/>
	<inductionLoop id="myDetector82" lane="e0_1" pos="4100" freq="300" file="{detectorOutput}"/>
	<inductionLoop id="myDetector83" lane="e0_0" pos="4200" freq="300" file="{detectorOutput}"/>
	<inductionLoop id="myDetector84" lane="e0_1" pos="4200" freq="300" file="{detectorOutput}"/>
	<inductionLoop id="myDetector85" lane="e0_0" pos="4300" freq="300" file="{detectorOutput}"/>
	<inductionLoop id="myDetector86" lane="e0_1" pos="4300" freq="300" file="{detectorOutput}"/>
	<inductionLoop id="myDetector87" lane="e0_0" pos="4400" freq="300" file="{detectorOutput}"/>
	<inductionLoop id="myDetector88" lane="e0_1" pos="4400" freq="300" file="{detectorOutput}"/>
	<inductionLoop id="myDetector89" lane="e0_0" pos="4500" freq="300" file="{detectorOutput}"/>
	<inductionLoop id="myDetector90" lane="e0_1" pos="4500" freq="300" file="{detectorOutput}"/>
	<inductionLoop id="myDetector91" lane="e0_0" pos="4600" freq="300" file="{detectorOutput}"/>
	<inductionLoop id="myDetector92" lane="e0_1" pos="4600" freq="300" file="{detectorOutput}"/>
	<inductionLoop id="myDetector93" lane="e0_0" pos="4700" freq="300" file="{detectorOutput}"/>
	<inductionLoop id="myDetector94" lane="e0_1" pos="4700" freq="300" file="{detectorOutput}"/>
 </additional>
